Network_06R-124/scenario_50/case.raw
0,100.0,33,0,0,60.0
GRID OPTIMIZATION COMPETITION
INPUT DATA FILES ARE RAW ROP INL CON
1,'            ',138.0,1,1,1,1,1.031303,-13.194314,1.1,0.9,1.1,0.9
2,'            ',69.0,1,1,1,1,1.0366221,-15.679997,1.1,0.9,1.1,0.9
3,'            ',138.0,1,1,1,1,1.0307829,-13.230544,1.1,0.9,1.1,0.9
4,'            ',69.0,1,1,1,1,1.0381133,-17.750795,1.1,0.9,1.1,0.9
5,'            ',69.0,1,1,1,1,1.0381957,-17.623389,1.1,0.9,1.1,0.9
6,'            ',69.0,1,1,1,1,1.02234,-17.692587,1.1,0.9,1.1,0.9
7,'            ',138.0,1,1,1,1,1.0201561,-14.301993,1.1,0.9,1.1,0.9
8,'            ',69.0,1,1,1,1,1.0395,-18.791718,1.1,0.9,1.1,0.9
9,'            ',138.0,1,1,1,1,1.0182042,-14.532449,1.1,0.9,1.1,0.9
10,'            ',69.0,1,1,1,1,1.033524,-17.888036,1.1,0.9,1.1,0.9
11,'            ',138.0,1,1,1,1,1.0176323,-14.592253,1.1,0.9,1.1,0.9
12,'            ',138.0,1,1,1,1,1.0198276,-14.64342,1.1,0.9,1.1,0.9
13,'            ',69.0,1,1,1,1,1.0214947,-18.04198,1.1,0.9,1.1,0.9
14,'            ',138.0,1,1,1,1,1.0198893,-14.623544,1.1,0.9,1.1,0.9
15,'            ',138.0,1,1,1,1,1.0113528,-14.843726,1.1,0.9,1.1,0.9
16,'            ',69.0,1,1,1,1,1.0499129,-16.240244,1.1,0.9,1.1,0.9
17,'            ',69.0,1,1,1,1,1.0139111,-16.923887,1.1,0.9,1.1,0.9
18,'            ',69.0,1,1,1,1,1.0242127,-16.906411,1.1,0.9,1.1,0.9
19,'            ',69.0,1,1,1,1,1.0241448,-16.917165,1.1,0.9,1.1,0.9
20,'            ',138.0,1,1,1,1,1.023691,-14.003778,1.1,0.9,1.1,0.9
21,'            ',69.0,1,1,1,1,1.0524266,-16.772173,1.1,0.9,1.1,0.9
22,'            ',138.0,1,1,1,1,1.0247779,-13.912766,1.1,0.9,1.1,0.9
23,'            ',69.0,1,1,1,1,1.0348863,-16.289883,1.1,0.9,1.1,0.9
24,'            ',69.0,1,1,1,1,1.0392084,-16.011979,1.1,0.9,1.1,0.9
25,'            ',69.0,1,1,1,1,1.0391442,-16.021541,1.1,0.9,1.1,0.9
26,'            ',138.0,1,1,1,1,1.0203708,-14.120993,1.1,0.9,1.1,0.9
27,'            ',69.0,1,1,1,1,1.0342966,-16.674769,1.1,0.9,1.1,0.9
28,'            ',138.0,1,1,1,1,1.0203529,-14.10278,1.1,0.9,1.1,0.9
29,'            ',69.0,1,1,1,1,1.054203,-15.097944,1.1,0.9,1.1,0.9
30,'            ',138.0,1,1,1,1,1.0260217,-14.030655,1.1,0.9,1.1,0.9
31,'            ',138.0,1,1,1,1,1.0235431,-14.181209,1.1,0.9,1.1,0.9
32,'            ',69.0,1,1,1,1,1.0196645,-15.97124,1.1,0.9,1.1,0.9
33,'            ',138.0,1,1,1,1,1.0231899,-14.221902,1.1,0.9,1.1,0.9
34,'            ',138.0,1,1,1,1,1.0271369,-13.323973,1.1,0.9,1.1,0.9
35,'            ',69.0,1,1,1,1,1.0487759,-16.157628,1.1,0.9,1.1,0.9
36,'            ',69.0,1,1,1,1,1.0579104,-15.356831,1.1,0.9,1.1,0.9
37,'            ',69.0,1,1,1,1,1.0468435,-16.64415,1.1,0.9,1.1,0.9
38,'            ',69.0,1,1,1,1,1.0434975,-17.553494,1.1,0.9,1.1,0.9
39,'            ',138.0,1,1,1,1,1.0295187,-12.052273,1.1,0.9,1.1,0.9
40,'            ',69.0,1,1,1,1,1.0434943,-13.849996,1.1,0.9,1.1,0.9
41,'            ',69.0,1,1,1,1,1.0356022,-15.53462,1.1,0.9,1.1,0.9
42,'            ',138.0,1,1,1,1,1.0228502,-14.302483,1.1,0.9,1.1,0.9
43,'            ',69.0,1,1,1,1,1.0234153,-16.623262,1.1,0.9,1.1,0.9
44,'            ',138.0,1,1,1,1,1.0222478,-14.342045,1.1,0.9,1.1,0.9
45,'            ',69.0,1,1,1,1,1.005935,-17.510274,1.1,0.9,1.1,0.9
46,'            ',69.0,1,1,1,1,1.0160916,-17.01758,1.1,0.9,1.1,0.9
47,'            ',345.0,1,1,1,1,1.0331579,-6.9246182,1.1,0.9,1.1,0.9
48,'            ',138.0,1,1,1,1,1.0463537,-8.5313519,1.1,0.9,1.1,0.9
49,'            ',69.0,1,1,1,1,1.047659,-10.89266,1.1,0.9,1.1,0.9
50,'            ',345.0,1,1,1,1,1.0328498,-6.9487266,1.1,0.9,1.1,0.9
51,'            ',69.0,1,1,1,1,1.0206757,-13.915111,1.1,0.9,1.1,0.9
52,'            ',345.0,1,1,1,1,1.0342276,-8.2328556,1.1,0.9,1.1,0.9
53,'            ',138.0,1,1,1,1,1.0270717,-11.439974,1.1,0.9,1.1,0.9
54,'            ',345.0,1,1,1,1,1.0337889,-8.2761986,1.1,0.9,1.1,0.9
55,'            ',138.0,1,1,1,1,1.0388222,-9.2229609,1.1,0.9,1.1,0.9
56,'            ',69.0,1,1,1,1,1.0403356,-12.511665,1.1,0.9,1.1,0.9
57,'            ',138.0,1,1,1,1,1.0386643,-9.2459966,1.1,0.9,1.1,0.9
58,'            ',69.0,1,1,1,1,1.0333571,-13.599047,1.1,0.9,1.1,0.9
59,'            ',69.0,1,1,1,1,1.0425494,-9.9021493,1.1,0.9,1.1,0.9
60,'            ',69.0,1,1,1,1,1.0424093,-10.47225,1.1,0.9,1.1,0.9
61,'            ',69.0,1,1,1,1,1.037366,-12.293635,1.1,0.9,1.1,0.9
62,'            ',69.0,1,1,1,1,1.047597,-11.043348,1.1,0.9,1.1,0.9
63,'            ',138.0,1,1,1,1,1.014684,-10.139569,1.1,0.9,1.1,0.9
64,'            ',69.0,1,1,1,1,1.0500179,-11.397924,1.1,0.9,1.1,0.9
65,'            ',138.0,1,1,1,1,1.0145422,-10.148958,1.1,0.9,1.1,0.9
66,'            ',69.0,1,1,1,1,1.0395491,-10.602513,1.1,0.9,1.1,0.9
67,'            ',138.0,1,1,1,1,1.0195856,-8.9032903,1.1,0.9,1.1,0.9
68,'            ',69.0,1,1,1,1,1.0510662,-9.1439633,1.1,0.9,1.1,0.9
69,'            ',138.0,1,1,1,1,1.0195127,-8.9080595,1.1,0.9,1.1,0.9
70,'            ',69.0,1,1,1,1,1.047892,-10.012854,1.1,0.9,1.1,0.9
71,'            ',138.0,1,1,1,1,1.0301999,-9.1363865,1.1,0.9,1.1,0.9
72,'            ',69.0,1,1,1,1,1.0547417,-9.5996198,1.1,0.9,1.1,0.9
73,'            ',138.0,1,1,1,1,1.0300608,-9.1524681,1.1,0.9,1.1,0.9
74,'            ',69.0,1,1,1,1,1.0335,-5.2639241,1.1,0.9,1.1,0.9
75,'            ',69.0,1,1,1,1,1.0325483,-4.8508503,1.1,0.9,1.1,0.9
76,'            ',138.0,1,1,1,1,1.033989,-5.4690972,1.1,0.9,1.1,0.9
77,'            ',69.0,1,1,1,1,1.0345852,-5.0893234,1.1,0.9,1.1,0.9
78,'            ',138.0,1,1,1,1,1.0338576,-5.4863109,1.1,0.9,1.1,0.9
79,'            ',138.0,1,1,1,1,1.0307876,-5.8475086,1.1,0.9,1.1,0.9
80,'            ',69.0,1,1,1,1,1.0476513,-5.3562943,1.1,0.9,1.1,0.9
81,'            ',138.0,1,1,1,1,1.0307391,-5.8531401,1.1,0.9,1.1,0.9
82,'            ',69.0,1,1,1,1,1.0454963,-6.6666923,1.1,0.9,1.1,0.9
83,'            ',138.0,1,1,1,1,1.0219318,-8.0159507,1.1,0.9,1.1,0.9
84,'            ',138.0,1,1,1,1,1.0219318,-8.0159507,1.1,0.9,1.1,0.9
85,'            ',138.0,1,1,1,1,1.0219318,-8.0159507,1.1,0.9,1.1,0.9
86,'            ',138.0,1,1,1,1,1.0302705,-13.408613,1.1,0.9,1.1,0.9
87,'            ',69.0,1,1,1,1,1.0557383,-15.936887,1.1,0.9,1.1,0.9
88,'            ',138.0,1,1,1,1,1.0299108,-13.446491,1.1,0.9,1.1,0.9
89,'            ',138.0,1,1,1,1,1.037406,-10.884093,1.1,0.9,1.1,0.9
90,'            ',69.0,1,1,1,1,1.0451716,-13.270542,1.1,0.9,1.1,0.9
91,'            ',138.0,1,1,1,1,1.0371056,-10.924709,1.1,0.9,1.1,0.9
92,'            ',69.0,1,1,1,1,1.0389071,-12.803176,1.1,0.9,1.1,0.9
93,'            ',69.0,1,1,1,1,1.0365,-13.114393,1.1,0.9,1.1,0.9
94,'            ',69.0,1,1,1,1,1.0359111,-12.94917,1.1,0.9,1.1,0.9
95,'            ',69.0,1,1,1,1,1.0415,-12.439331,1.1,0.9,1.1,0.9
96,'            ',345.0,1,1,1,1,1.0318994,-7.2656596,1.1,0.9,1.1,0.9
97,'            ',138.0,1,1,1,1,1.0444859,-9.823136,1.1,0.9,1.1,0.9
98,'            ',69.0,1,1,1,1,1.0516411,-12.476258,1.1,0.9,1.1,0.9
99,'            ',138.0,1,1,1,1,1.0430877,-10.013149,1.1,0.9,1.1,0.9
100,'            ',138.0,1,1,1,1,1.038929,-11.364722,1.1,0.9,1.1,0.9
101,'            ',69.0,1,1,1,1,1.0469262,-13.656605,1.1,0.9,1.1,0.9
102,'            ',138.0,1,1,1,1,1.0385328,-11.412054,1.1,0.9,1.1,0.9
103,'            ',69.0,1,1,1,1,1.0464609,-12.910229,1.1,0.9,1.1,0.9
104,'            ',69.0,1,1,1,1,1.044706,-13.175317,1.1,0.9,1.1,0.9
105,'            ',345.0,1,1,1,1,1.0395,-6.3264804,1.1,0.9,1.1,0.9
106,'            ',138.0,1,1,1,1,1.0382519,-8.8921684,1.1,0.9,1.1,0.9
107,'            ',69.0,1,1,1,1,1.045897,-11.553152,1.1,0.9,1.1,0.9
108,'            ',345.0,1,1,1,1,1.0389973,-6.3733873,1.1,0.9,1.1,0.9
109,'            ',69.0,1,1,1,1,1.0305219,-13.847661,1.1,0.9,1.1,0.9
110,'            ',138.0,1,1,1,1,1.0431645,-11.266414,1.1,0.9,1.1,0.9
111,'            ',69.0,1,1,1,1,1.04329,-12.142919,1.1,0.9,1.1,0.9
112,'            ',138.0,1,1,1,1,1.0428225,-11.30783,1.1,0.9,1.1,0.9
113,'            ',69.0,1,1,1,1,1.0362991,-14.646541,1.1,0.9,1.1,0.9
114,'            ',69.0,1,1,1,1,1.0345,-9.1033701,1.1,0.9,1.1,0.9
115,'            ',69.0,1,1,1,1,1.0367586,-12.796639,1.1,0.9,1.1,0.9
116,'            ',69.0,1,1,1,1,1.0456063,-13.499018,1.1,0.9,1.1,0.9
117,'            ',69.0,1,1,1,1,1.0331971,-12.598954,1.1,0.9,1.1,0.9
118,'            ',69.0,1,1,1,1,1.0354922,-12.954498,1.1,0.9,1.1,0.9
119,'            ',69.0,1,1,1,1,1.035121,-17.671454,1.1,0.9,1.1,0.9
120,'            ',69.0,1,1,1,1,1.0277847,-17.890202,1.1,0.9,1.1,0.9
121,'            ',138.0,1,1,1,1,1.0006904,-16.381169,1.1,0.9,1.1,0.9
122,'            ',69.0,1,1,1,1,1.0282403,-16.937289,1.1,0.9,1.1,0.9
123,'            ',138.0,1,1,1,1,1.0002081,-16.431185,1.1,0.9,1.1,0.9
124,'            ',138.0,1,1,1,1,1.004713,-16.968693,1.1,0.9,1.1,0.9
125,'            ',69.0,1,1,1,1,1.0182745,-18.405903,1.1,0.9,1.1,0.9
126,'            ',138.0,1,1,1,1,1.0043405,-16.998927,1.1,0.9,1.1,0.9
127,'            ',69.0,1,1,1,1,1.037621,-16.324027,1.1,0.9,1.1,0.9
128,'            ',69.0,1,1,1,1,1.0385,-17.830419,1.1,0.9,1.1,0.9
129,'            ',69.0,1,1,1,1,1.032522,-17.00415,1.1,0.9,1.1,0.9
130,'            ',69.0,1,1,1,1,1.0321537,-17.055994,1.1,0.9,1.1,0.9
131,'            ',69.0,1,1,1,1,1.0375,-20.390854,1.1,0.9,1.1,0.9
132,'            ',138.0,1,1,1,1,1.0052248,-17.014461,1.1,0.9,1.1,0.9
133,'            ',69.0,1,1,1,1,1.0199531,-19.514542,1.1,0.9,1.1,0.9
134,'            ',138.0,1,1,1,1,1.005145,-16.967152,1.1,0.9,1.1,0.9
135,'            ',138.0,1,1,1,1,1.0021114,-15.471512,1.1,0.9,1.1,0.9
136,'            ',69.0,1,1,1,1,1.037065,-17.48861,1.1,0.9,1.1,0.9
137,'            ',138.0,1,1,1,1,1.0015279,-15.555686,1.1,0.9,1.1,0.9
138,'            ',69.0,1,1,1,1,1.0348773,-17.330106,1.1,0.9,1.1,0.9
139,'            ',138.0,1,1,1,1,1.0016877,-16.175893,1.1,0.9,1.1,0.9
140,'            ',69.0,1,1,1,1,1.0195841,-19.148721,1.1,0.9,1.1,0.9
141,'            ',138.0,1,1,1,1,1.0019967,-16.158004,1.1,0.9,1.1,0.9
142,'            ',138.0,1,1,1,1,1.0034187,-15.661466,1.1,0.9,1.1,0.9
143,'            ',69.0,1,1,1,1,1.0314033,-17.229716,1.1,0.9,1.1,0.9
144,'            ',138.0,1,1,1,1,1.0030503,-15.715672,1.1,0.9,1.1,0.9
145,'            ',69.0,1,1,1,1,1.0363954,-16.773023,1.1,0.9,1.1,0.9
146,'            ',69.0,1,1,1,1,1.0379915,-18.187762,1.1,0.9,1.1,0.9
147,'            ',138.0,1,1,1,1,1.004548,-14.931988,1.1,0.9,1.1,0.9
148,'            ',69.0,1,1,1,1,1.0375698,-16.740724,1.1,0.9,1.1,0.9
149,'            ',138.0,1,1,1,1,1.0040643,-14.992135,1.1,0.9,1.1,0.9
150,'            ',69.0,1,1,1,1,1.0311148,-17.97839,1.1,0.9,1.1,0.9
151,'            ',138.0,1,1,1,1,1.0096318,-15.250165,1.1,0.9,1.1,0.9
152,'            ',69.0,1,1,1,1,1.0425746,-17.389719,1.1,0.9,1.1,0.9
153,'            ',138.0,1,1,1,1,1.0093926,-15.290221,1.1,0.9,1.1,0.9
154,'            ',69.0,1,1,1,1,1.0302971,-18.19988,1.1,0.9,1.1,0.9
155,'            ',69.0,1,1,1,1,1.0391125,-16.064974,1.1,0.9,1.1,0.9
156,'            ',69.0,1,1,1,1,1.0383552,-16.66224,1.1,0.9,1.1,0.9
157,'            ',138.0,1,1,1,1,1.0129911,-13.25613,1.1,0.9,1.1,0.9
158,'            ',138.0,1,1,1,1,1.0153611,-12.946515,1.1,0.9,1.1,0.9
159,'            ',345.0,1,1,1,1,1.0365,-9.1772841,1.1,0.9,1.1,0.9
160,'            ',138.0,1,1,1,1,1.0322457,-10.694716,1.1,0.9,1.1,0.9
161,'            ',69.0,1,1,1,1,1.0337448,-13.568184,1.1,0.9,1.1,0.9
162,'            ',138.0,1,1,1,1,1.0305682,-10.872316,1.1,0.9,1.1,0.9
163,'            ',69.0,1,1,1,1,1.0407496,-15.050818,1.1,0.9,1.1,0.9
164,'            ',69.0,1,1,1,1,1.0321331,-18.07806,1.1,0.9,1.1,0.9
165,'            ',138.0,1,1,1,1,1.0066649,-15.085414,1.1,0.9,1.1,0.9
166,'            ',69.0,1,1,1,1,1.041496,-17.279036,1.1,0.9,1.1,0.9
167,'            ',138.0,1,1,1,1,1.0053771,-15.158682,1.1,0.9,1.1,0.9
168,'            ',69.0,1,1,1,1,1.035301,-17.733264,1.1,0.9,1.1,0.9
169,'            ',69.0,1,1,1,1,1.0355,-17.774179,1.1,0.9,1.1,0.9
170,'            ',138.0,1,1,1,1,1.0100038,-15.418023,1.1,0.9,1.1,0.9
171,'            ',69.0,1,1,1,1,1.0371948,-17.554749,1.1,0.9,1.1,0.9
172,'            ',138.0,1,1,1,1,1.0096411,-15.45773,1.1,0.9,1.1,0.9
173,'            ',69.0,1,1,1,1,1.0415,-18.418656,1.1,0.9,1.1,0.9
174,'            ',138.0,1,1,1,1,1.0171853,-14.376284,1.1,0.9,1.1,0.9
175,'            ',69.0,1,1,1,1,1.0475959,-16.440237,1.1,0.9,1.1,0.9
176,'            ',138.0,1,1,1,1,1.0169143,-14.415924,1.1,0.9,1.1,0.9
177,'            ',69.0,1,1,1,1,1.0405,-16.920032,1.1,0.9,1.1,0.9
178,'            ',69.0,1,1,1,1,1.0335,-15.311141,1.1,0.9,1.1,0.9
179,'            ',69.0,1,1,1,1,1.0404129,-16.386738,1.1,0.9,1.1,0.9
180,'            ',69.0,1,1,1,1,1.0400333,-16.305506,1.1,0.9,1.1,0.9
181,'            ',138.0,1,1,1,1,1.0143642,-15.017886,1.1,0.9,1.1,0.9
182,'            ',69.0,1,1,1,1,1.0318446,-17.725182,1.1,0.9,1.1,0.9
183,'            ',138.0,1,1,1,1,1.0139772,-15.060932,1.1,0.9,1.1,0.9
184,'            ',69.0,1,1,1,1,1.0336246,-16.575908,1.1,0.9,1.1,0.9
185,'            ',69.0,1,1,1,1,1.0319131,-17.267721,1.1,0.9,1.1,0.9
186,'            ',69.0,1,1,1,1,1.0405,-15.380073,1.1,0.9,1.1,0.9
187,'            ',69.0,1,1,1,1,1.0229368,-17.911014,1.1,0.9,1.1,0.9
188,'            ',138.0,1,1,1,1,1.0380847,-13.510648,1.1,0.9,1.1,0.9
189,'            ',69.0,1,1,1,1,1.0489325,-15.119817,1.1,0.9,1.1,0.9
190,'            ',138.0,1,1,1,1,1.0377986,-13.546176,1.1,0.9,1.1,0.9
191,'            ',138.0,1,1,1,1,1.0108157,-13.554389,1.1,0.9,1.1,0.9
192,'            ',69.0,1,1,1,1,1.0452365,-16.052652,1.1,0.9,1.1,0.9
193,'            ',138.0,1,1,1,1,1.0124522,-13.39071,1.1,0.9,1.1,0.9
194,'            ',138.0,1,1,1,1,1.009155,-13.911121,1.1,0.9,1.1,0.9
195,'            ',69.0,1,1,1,1,1.0461388,-15.961451,1.1,0.9,1.1,0.9
196,'            ',138.0,1,1,1,1,1.0089338,-13.943074,1.1,0.9,1.1,0.9
197,'            ',69.0,1,1,1,1,1.0357484,-15.790358,1.1,0.9,1.1,0.9
198,'            ',69.0,1,1,1,1,1.0359398,-15.768409,1.1,0.9,1.1,0.9
199,'            ',69.0,1,1,1,1,1.0395,-15.140635,1.1,0.9,1.1,0.9
200,'            ',69.0,1,1,1,1,1.0285746,-13.952788,1.1,0.9,1.1,0.9
...
0 / END OF BUS DATA BEGIN LOAD DATA
3,'1',1,1,1,73.645104,35.634181,0.0,0.0,0.0,0.0,1,1,0
4,'1',1,1,1,40.653362,2.7392908,0.0,0.0,0.0,0.0,1,1,0
5,'1',1,1,1,68.246475,33.59314,0.0,0.0,0.0,0.0,1,1,0
6,'1',1,1,1,70.793189,5.7390812,0.0,0.0,0.0,0.0,1,1,0
7,'1',1,1,1,64.380972,13.847522,0.0,0.0,0.0,0.0,1,1,0
8,'1',1,1,1,42.840333,11.208446,0.0,0.0,0.0,0.0,1,1,0
11,'1',1,1,1,96.513838,31.709762,0.0,0.0,0.0,0.0,1,1,0
13,'1',1,1,1,88.575003,18.969363,0.0,0.0,0.0,0.0,1,1,0
15,'1',1,1,1,138.98032,67.537895,0.0,0.0,0.0,0.0,1,1,0
16,'1',1,1,1,68.419438,13.279959,0.0,0.0,0.0,0.0,1,1,0
17,'1',1,1,1,51.200968,30.308558,0.0,0.0,0.0,0.0,1,1,0
19,'1',1,1,1,18.726782,2.1220104,0.0,0.0,0.0,0.0,1,1,0
21,'1',1,1,1,113.4866,13.904633,0.0,0.0,0.0,0.0,1,1,0
23,'1',1,1,1,51.699483,7.6290442,0.0,0.0,0.0,0.0,1,1,0
24,'1',1,1,1,14.13996,3.1283986,0.0,0.0,0.0,0.0,1,1,0
25,'1',1,1,1,16.842816,2.0116044,0.0,0.0,0.0,0.0,1,1,0
27,'1',1,1,1,77.816497,20.647405,0.0,0.0,0.0,0.0,1,1,0
29,'1',1,1,1,84.043055,32.813682,0.0,0.0,0.0,0.0,1,1,0
30,'1',1,1,1,75.386024,1.6779083,0.0,0.0,0.0,0.0,1,1,0
33,'1',1,1,1,65.495937,15.132756,0.0,0.0,0.0,0.0,1,1,0
34,'1',1,1,1,61.463475,16.642872,0.0,0.0,0.0,0.0,1,1,0
35,'1',1,1,1,74.408689,13.857308,0.0,0.0,0.0,0.0,1,1,0
36,'1',1,1,1,52.679161,5.9300195,0.0,0.0,0.0,0.0,1,1,0
37,'1',1,1,1,86.540592,9.7806182,0.0,0.0,0.0,0.0,1,1,0
38,'1',1,1,1,25.907089,6.4814676,0.0,0.0,0.0,0.0,1,1,0
40,'1',1,1,1,54.437163,30.034205,0.0,0.0,0.0,0.0,1,1,0
41,'1',1,1,1,38.149777,12.761943,0.0,0.0,0.0,0.0,1,1,0
44,'1',1,1,1,74.428143,42.169646,0.0,0.0,0.0,0.0,1,1,0
45,'1',1,1,1,24.192091,4.5246465,0.0,0.0,0.0,0.0,1,1,0
46,'1',1,1,1,24.265403,4.5638405,0.0,0.0,0.0,0.0,1,1,0
50,'1',1,1,1,45.194042,19.239059,0.0,0.0,0.0,0.0,1,1,0
51,'1',1,1,1,30.920977,15.982516,0.0,0.0,0.0,0.0,1,1,0
54,'1',1,1,1,85.194304,27.479007,0.0,0.0,0.0,0.0,1,1,0
57,'1',1,1,1,44.075397,3.2419643,0.0,0.0,0.0,0.0,1,1,0
58,'1',1,1,1,39.549698,15.946891,0.0,0.0,0.0,0.0,1,1,0
59,'1',1,1,1,28.724769,9.7436993,0.0,0.0,0.0,0.0,1,1,0
60,'1',1,1,1,20.191606,0.64741341,0.0,0.0,0.0,0.0,1,1,0
61,'1',1,1,1,9.5033939,2.8909898,0.0,0.0,0.0,0.0,1,1,0
62,'1',1,1,1,8.7681643,5.5920051,0.0,0.0,0.0,0.0,1,1,0
65,'1',1,1,1,18.351865,9.5651545,0.0,0.0,0.0,0.0,1,1,0
66,'1',1,1,1,8.4768717,3.2413293,0.0,0.0,0.0,0.0,1,1,0
69,'1',1,1,1,8.9935842,4.7641351,0.0,0.0,0.0,0.0,1,1,0
70,'1',1,1,1,7.767585,0.66291513,0.0,0.0,0.0,0.0,1,1,0
72,'1',1,1,1,13.125377,4.3784243,0.0,0.0,0.0,0.0,1,1,0
74,'1',1,1,1,16.82436,1.3853107,0.0,0.0,0.0,0.0,1,1,0
75,'1',1,1,1,14.589206,4.7657244,0.0,0.0,0.0,0.0,1,1,0
78,'1',1,1,1,31.369466,5.5511129,0.0,0.0,0.0,0.0,1,1,0
81,'1',1,1,1,10.033738,1.8967723,0.0,0.0,0.0,0.0,1,1,0
82,'1',1,1,1,9.5962897,0.63288413,0.0,0.0,0.0,0.0,1,1,0
84,'1',1,1,1,21.942595,7.0532593,0.0,0.0,0.0,0.0,1,1,0
88,'1',1,1,1,69.163299,16.814704,0.0,0.0,0.0,0.0,1,1,0
91,'1',1,1,1,70.162512,11.265824,0.0,0.0,0.0,0.0,1,1,0
92,'1',1,1,1,36.378414,17.586889,0.0,0.0,0.0,0.0,1,1,0
93,'1',1,1,1,20.985315,4.9038289,0.0,0.0,0.0,0.0,1,1,0
94,'1',1,1,1,19.279182,3.2384379,0.0,0.0,0.0,0.0,1,1,0
95,'1',1,1,1,53.685418,14.237697,0.0,0.0,0.0,0.0,1,1,0
99,'1',1,1,1,82.112644,30.474595,0.0,0.0,0.0,0.0,1,1,0
102,'1',1,1,1,92.525787,13.492558,0.0,0.0,0.0,0.0,1,1,0
103,'1',1,1,1,40.09751,1.8757952,0.0,0.0,0.0,0.0,1,1,0
104,'1',1,1,1,67.756799,24.159843,0.0,0.0,0.0,0.0,1,1,0
108,'1',1,1,1,90.917884,30.965834,0.0,0.0,0.0,0.0,1,1,0
109,'1',1,1,1,45.608078,12.035745,0.0,0.0,0.0,0.0,1,1,0
112,'1',1,1,1,73.375959,17.363329,0.0,0.0,0.0,0.0,1,1,0
113,'1',1,1,1,62.58284,7.2917717,0.0,0.0,0.0,0.0,1,1,0
114,'1',1,1,1,7.1014671,1.9832297,0.0,0.0,0.0,0.0,1,1,0
115,'1',1,1,1,39.131675,16.758902,0.0,0.0,0.0,0.0,1,1,0
116,'1',1,1,1,14.050448,3.0867499,0.0,0.0,0.0,0.0,1,1,0
117,'1',1,1,1,32.025388,1.165945,0.0,0.0,0.0,0.0,1,1,0
118,'1',1,1,1,15.142657,3.5323624,0.0,0.0,0.0,0.0,1,1,0
119,'1',1,1,1,49.223257,13.577947,0.0,0.0,0.0,0.0,1,1,0
120,'1',1,1,1,76.63679,52.256183,0.0,0.0,0.0,0.0,1,1,0
123,'1',1,1,1,83.231151,25.80393,0.0,0.0,0.0,0.0,1,1,0
126,'1',1,1,1,58.759979,22.178782,0.0,0.0,0.0,0.0,1,1,0
127,'1',1,1,1,34.905217,8.761689,0.0,0.0,0.0,0.0,1,1,0
128,'1',1,1,1,33.603731,8.0871803,0.0,0.0,0.0,0.0,1,1,0
130,'1',1,1,1,84.492091,14.202815,0.0,0.0,0.0,0.0,1,1,0
131,'1',1,1,1,49.622704,26.401264,0.0,0.0,0.0,0.0,1,1,0
133,'1',1,1,1,69.810453,12.821098,0.0,0.0,0.0,0.0,1,1,0
137,'1',1,1,1,150.93694,19.10198,0.0,0.0,0.0,0.0,1,1,0
138,'1',1,1,1,47.563518,5.5833256,0.0,0.0,0.0,0.0,1,1,0
140,'1',1,1,1,107.13543,64.13641,0.0,0.0,0.0,0.0,1,1,0
144,'1',1,1,1,84.566056,16.137318,0.0,0.0,0.0,0.0,1,1,0
145,'1',1,1,1,61.378888,7.1140295,0.0,0.0,0.0,0.0,1,1,0
146,'1',1,1,1,47.000987,10.308646,0.0,0.0,0.0,0.0,1,1,0
149,'1',1,1,1,96.563646,22.571065,0.0,0.0,0.0,0.0,1,1,0
150,'1',1,1,1,56.229321,7.0120854,0.0,0.0,0.0,0.0,1,1,0
153,'1',1,1,1,66.364066,7.7239736,0.0,0.0,0.0,0.0,1,1,0
154,'1',1,1,1,62.318021,13.15283,0.0,0.0,0.0,0.0,1,1,0
155,'1',1,1,1,64.708007,2.8714297,0.0,0.0,0.0,0.0,1,1,0
156,'1',1,1,1,53.162135,23.642174,0.0,0.0,0.0,0.0,1,1,0
157,'1',1,1,1,53.99647,14.129655,0.0,0.0,0.0,0.0,1,1,0
158,'1',1,1,1,81.945613,19.423762,0.0,0.0,0.0,0.0,1,1,0
162,'1',1,1,1,78.368762,11.352986,0.0,0.0,0.0,0.0,1,1,0
163,'1',1,1,1,58.908261,14.30913,0.0,0.0,0.0,0.0,1,1,0
164,'1',1,1,1,29.474738,7.8338639,0.0,0.0,0.0,0.0,1,1,0
167,'1',1,1,1,146.92379,89.384139,0.0,0.0,0.0,0.0,1,1,0
168,'1',1,1,1,33.048199,6.2878982,0.0,0.0,0.0,0.0,1,1,0
169,'1',1,1,1,51.705259,13.758431,0.0,0.0,0.0,0.0,1,1,0
172,'1',1,1,1,68.890755,16.268507,0.0,0.0,0.0,0.0,1,1,0
173,'1',1,1,1,59.731155,30.924425,0.0,0.0,0.0,0.0,1,1,0
176,'1',1,1,1,68.837127,8.0758191,0.0,0.0,0.0,0.0,1,1,0
177,'1',1,1,1,35.157403,9.6841419,0.0,0.0,0.0,0.0,1,1,0
178,'1',1,1,1,23.610318,5.2070156,0.0,0.0,0.0,0.0,1,1,0
179,'1',1,1,1,46.693603,5.4753923,0.0,0.0,0.0,0.0,1,1,0
180,'1',1,1,1,35.292141,5.0950514,0.0,0.0,0.0,0.0,1,1,0
183,'1',1,1,1,77.344763,18.128536,0.0,0.0,0.0,0.0,1,1,0
184,'1',1,1,1,44.881858,3.1592825,0.0,0.0,0.0,0.0,1,1,0
185,'1',1,1,1,31.188011,5.3694142,0.0,0.0,0.0,0.0,1,1,0
186,'1',1,1,1,40.26776,9.5142113,0.0,0.0,0.0,0.0,1,1,0
187,'1',1,1,1,37.601984,11.424459,0.0,0.0,0.0,0.0,1,1,0
190,'1',1,1,1,62.171388,13.948273,0.0,0.0,0.0,0.0,1,1,0
192,'1',1,1,1,58.908449,25.499208,0.0,0.0,0.0,0.0,1,1,0
196,'1',1,1,1,51.952341,8.656567,0.0,0.0,0.0,0.0,1,1,0
197,'1',1,1,1,41.209864,9.1835163,0.0,0.0,0.0,0.0,1,1,0
199,'1',1,1,1,33.489668,4.509629,0.0,0.0,0.0,0.0,1,1,0
200,'1',1,1,1,39.490345,15.620227,0.0,0.0,0.0,0.0,1,1,0
201,'1',1,1,1,47.61507,10.263354,0.0,0.0,0.0,0.0,1,1,0
204,'1',1,1,1,80.731892,38.818255,0.0,0.0,0.0,0.0,1,1,0
206,'1',1,1,1,26.873436,11.039542,0.0,0.0,0.0,0.0,1,1,0
209,'1',1,1,1,39.489542,11.647153,0.0,0.0,0.0,0.0,1,1,0
213,'1',1,1,1,53.810333,21.020206,0.0,0.0,0.0,0.0,1,1,0
214,'1',1,1,1,31.198785,6.4793594,0.0,0.0,0.0,0.0,1,1,0
217,'1',1,1,1,109.00507,32.430295,0.0,0.0,0.0,0.0,1,1,0
218,'1',1,1,1,24.717703,6.2166395,0.0,0.0,0.0,0.0,1,1,0
219,'1',1,1,1,23.615754,14.688149,0.0,0.0,0.0,0.0,1,1,0
220,'1',1,1,1,49.601342,10.834569,0.0,0.0,0.0,0.0,1,1,0
221,'1',1,1,1,24.738031,9.806564,0.0,0.0,0.0,0.0,1,1,0
223,'1',1,1,1,69.411658,9.4748315,0.0,0.0,0.0,0.0,1,1,0
225,'1',1,1,1,136.58168,38.974309,0.0,0.0,0.0,0.0,1,1,0
226,'1',1,1,1,45.374016,20.486295,0.0,0.0,0.0,0.0,1,1,0
227,'1',1,1,1,26.630544,10.08562,0.0,0.0,0.0,0.0,1,1,0
229,'1',1,1,1,92.139469,29.402788,0.0,0.0,0.0,0.0,1,1,0
230,'1',1,1,1,5.7086237,1.6518168,0.0,0.0,0.0,0.0,1,1,0
234,'1',1,1,1,53.518952,6.0064791,0.0,0.0,0.0,0.0,1,1,0
236,'1',1,1,1,29.367667,5.4901676,0.0,0.0,0.0,0.0,1,1,0
237,'1',1,1,1,43.802863,11.384197,0.0,0.0,0.0,0.0,1,1,0
238,'1',1,1,1,29.61374,6.971956,0.0,0.0,0.0,0.0,1,1,0
239,'1',1,1,1,47.594801,7.1912053,0.0,0.0,0.0,0.0,1,1,0
241,'1',1,1,1,83.020765,10.326348,0.0,0.0,0.0,0.0,1,1,0
242,'1',1,1,1,35.166978,3.8250676,0.0,0.0,0.0,0.0,1,1,0
244,'1',1,1,1,53.835369,5.244583,0.0,0.0,0.0,0.0,1,1,0
245,'1',1,1,1,57.499086,5.4978973,0.0,0.0,0.0,0.0,1,1,0
246,'1',1,1,1,64.013429,35.923811,0.0,0.0,0.0,0.0,1,1,0
247,'1',1,1,1,68.108016,20.035539,0.0,0.0,0.0,0.0,1,1,0
250,'1',1,1,1,99.122613,3.2244641,0.0,0.0,0.0,0.0,1,1,0
253,'1',1,1,1,92.561882,16.861086,0.0,0.0,0.0,0.0,1,1,0
255,'1',1,1,1,67.263294,2.3418776,0.0,0.0,0.0,0.0,1,1,0
259,'1',1,1,1,68.255927,20.130918,0.0,0.0,0.0,0.0,1,1,0
260,'1',1,1,1,61.364969,17.002365,0.0,0.0,0.0,0.0,1,1,0
262,'1',1,1,1,72.53485,43.798792,0.0,0.0,0.0,0.0,1,1,0
263,'1',1,1,1,30.638609,10.814957,0.0,0.0,0.0,0.0,1,1,0
265,'1',1,1,1,93.718569,25.388242,0.0,0.0,0.0,0.0,1,1,0
267,'1',1,1,1,54.729395,18.185359,0.0,0.0,0.0,0.0,1,1,0
270,'1',1,1,1,64.307827,16.240747,0.0,0.0,0.0,0.0,1,1,0
271,'1',1,1,1,50.293626,14.097771,0.0,0.0,0.0,0.0,1,1,0
274,'1',1,1,1,72.144704,19.449132,0.0,0.0,0.0,0.0,1,1,0
275,'1',1,1,1,25.022725,8.6267539,0.0,0.0,0.0,0.0,1,1,0
276,'1',1,1,1,26.776459,8.5214519,0.0,0.0,0.0,0.0,1,1,0
277,'1',1,1,1,14.302143,1.4919578,0.0,0.0,0.0,0.0,1,1,0
281,'1',1,1,1,36.240999,12.68424,0.0,0.0,0.0,0.0,1,1,0
282,'1',1,1,1,14.349375,4.4195164,0.0,0.0,0.0,0.0,1,1,0
283,'1',1,1,1,17.788216,5.9165801,0.0,0.0,0.0,0.0,1,1,0
285,'1',1,1,1,31.999334,3.3056655,0.0,0.0,0.0,0.0,1,1,0
286,'1',1,1,1,61.165848,21.312308,0.0,0.0,0.0,0.0,1,1,0
287,'1',1,1,1,82.198625,12.096711,0.0,0.0,0.0,0.0,1,1,0
288,'1',1,1,1,39.579839,6.9100194,0.0,0.0,0.0,0.0,1,1,0
290,'1',1,1,1,47.059283,3.3401254,0.0,0.0,0.0,0.0,1,1,0
294,'1',1,1,1,31.349683,2.4554034,0.0,0.0,0.0,0.0,1,1,0
295,'1',1,1,1,61.660925,22.023304,0.0,0.0,0.0,0.0,1,1,0
298,'1',1,1,1,71.790576,19.419936,0.0,0.0,0.0,0.0,1,1,0
299,'1',1,1,1,46.945463,16.737176,0.0,0.0,0.0,0.0,1,1,0
300,'1',1,1,1,71.453858,9.6048388,0.0,0.0,0.0,0.0,1,1,0
301,'1',1,1,1,32.887025,10.656861,0.0,0.0,0.0,0.0,1,1,0
302,'1',1,1,1,33.42312,7.5704699,0.0,0.0,0.0,0.0,1,1,0
303,'1',1,1,1,21.909992,11.273596,0.0,0.0,0.0,0.0,1,1,0
305,'1',1,1,1,14.068343,0.52697526,0.0,0.0,0.0,0.0,1,1,0
306,'1',1,1,1,23.494735,1.6031321,0.0,0.0,0.0,0.0,1,1,0
307,'1',1,1,1,31.047928,6.3227679,0.0,0.0,0.0,0.0,1,1,0
308,'1',1,1,1,51.867438,3.3809822,0.0,0.0,0.0,0.0,1,1,0
311,'1',1,1,1,66.979428,19.793126,0.0,0.0,0.0,0.0,1,1,0
315,'1',1,1,1,74.2028,27.794341,0.0,0.0,0.0,0.0,1,1,0
318,'1',1,1,1,46.773108,12.246529,0.0,0.0,0.0,0.0,1,1,0
320,'1',1,1,1,55.680754,18.269514,0.0,0.0,0.0,0.0,1,1,0
321,'1',1,1,1,31.098901,13.776457,0.0,0.0,0.0,0.0,1,1,0
324,'1',1,1,1,34.900117,13.200978,0.0,0.0,0.0,0.0,1,1,0
327,'1',1,1,1,33.517266,3.7270442,0.0,0.0,0.0,0.0,1,1,0
328,'1',1,1,1,11.758582,1.1325546,0.0,0.0,0.0,0.0,1,1,0
329,'1',1,1,1,10.234108,1.6019831,0.0,0.0,0.0,0.0,1,1,0
330,'1',1,1,1,42.706475,7.3175882,0.0,0.0,0.0,0.0,1,1,0
333,'1',1,1,1,54.344702,7.1674088,0.0,0.0,0.0,0.0,1,1,0
336,'1',1,1,1,101.32531,11.744864,0.0,0.0,0.0,0.0,1,1,0
338,'1',1,1,1,63.160394,7.8577843,0.0,0.0,0.0,0.0,1,1,0
339,'1',1,1,1,50.798195,8.6772743,0.0,0.0,0.0,0.0,1,1,0
340,'1',1,1,1,53.353021,17.602287,0.0,0.0,0.0,0.0,1,1,0
341,'1',1,1,1,35.885264,5.5312954,0.0,0.0,0.0,0.0,1,1,0
344,'1',1,1,1,49.875623,18.111492,0.0,0.0,0.0,0.0,1,1,0
345,'1',1,1,1,8.5844753,2.9384148,0.0,0.0,0.0,0.0,1,1,0
346,'1',1,1,1,9.6550404,2.0794301,0.0,0.0,0.0,0.0,1,1,0
347,'1',1,1,1,19.734908,6.4595458,0.0,0.0,0.0,0.0,1,1,0
350,'1',1,1,1,80.714222,24.906006,0.0,0.0,0.0,0.0,1,1,0
...
0 / END OF LOAD DATA BEGIN FIXED SHUNT DATA
0 / END OF FIXED SHUNT DATA BEGIN GENERATOR DATA
511,'1',286.91697,67.792149,146.041,-31.848,1.036,0,286.92,0.0,1.0,0.0,0.0,1.0,1,1.0,286.917,111.868,1,1.0,0,1.0,0,1.0,0,1.0,0,1.0
512,'1',286.91697,108.29723,146.041,-31.848,1.036,0,286.92,0.0,1.0,0.0,0.0,1.0,1,1.0,286.917,136.713,1,1.0,0,1.0,0,1.0,0,1.0,0,1.0
513,'1',286.91697,103.30551,146.041,-31.848,1.036,0,286.92,0.0,1.0,0.0,0.0,1.0,1,1.0,286.917,117.88,1,1.0,0,1.0,0,1.0,0,1.0,0,1.0
514,'1',236.6013,90.428649,146.041,-31.848,1.0121348,0,286.92,0.0,1.0,0.0,0.0,1.0,0,1.0,286.917,119.916,1,1.0,0,1.0,0,1.0,0,1.0,0,1.0
515,'1',286.91697,113.58745,146.041,-31.848,1.036,0,286.92,0.0,1.0,0.0,0.0,1.0,1,1.0,286.917,143.131,1,1.0,0,1.0,0,1.0,0,1.0,0,1.0
516,'1',223.96114,56.982116,146.041,-31.848,1.0121348,0,286.92,0.0,1.0,0.0,0.0,1.0,0,1.0,286.917,65.487,1,1.0,0,1.0,0,1.0,0,1.0,0,1.0
518,'1',26.499997,2.841516,13.488,-2.942,1.0365,0,26.5,0.0,1.0,0.0,0.0,1.0,1,1.0,26.5,8.564,1,1.0,0,1.0,0,1.0,0,1.0,0,1.0
522,'1',818.59991,261.91865,301.245,-67.125,1.0725,0,818.6,0.0,1.0,0.0,0.0,1.0,1,1.0,818.6,393.254,1,1.0,0,1.0,0,1.0,0,1.0,0,1.0
523,'1',818.59991,261.02418,301.245,-67.125,1.075,0,818.6,0.0,1.0,0.0,0.0,1.0,1,1.0,818.6,92.398,1,1.0,0,1.0,0,1.0,0,1.0,0,1.0
525,'1',5.933,0.0,3.02,-0.659,1.0434198,0,5.93,0.0,1.0,0.0,0.0,1.0,0,1.0,5.933,1.3,1,1.0,0,1.0,0,1.0,0,1.0,0,1.0
525,'2',5.933,0.0,3.02,-0.659,1.0434198,0,5.93,0.0,1.0,0.0,0.0,1.0,0,1.0,5.933,1.833,1,1.0,0,1.0,0,1.0,0,1.0,0,1.0
525,'3',5.933,0.0,3.02,-0.659,1.0434198,0,5.93,0.0,1.0,0.0,0.0,1.0,0,1.0,5.933,2.076,1,1.0,0,1.0,0,1.0,0,1.0,0,1.0
525,'4',5.933,0.0,3.02,-0.659,1.0434198,0,5.93,0.0,1.0,0.0,0.0,1.0,0,1.0,5.933,1.712,1,1.0,0,1.0,0,1.0,0,1.0,0,1.0
525,'5',5.933,0.0,3.02,-0.659,1.0434198,0,5.93,0.0,1.0,0.0,0.0,1.0,0,1.0,5.933,1.58,1,1.0,0,1.0,0,1.0,0,1.0,0,1.0
525,'6',5.933,0.0,3.02,-0.659,1.0434198,0,5.93,0.0,1.0,0.0,0.0,1.0,0,1.0,5.933,1.676,1,1.0,0,1.0,0,1.0,0,1.0,0,1.0
529,'1',244.8,0.0,124.603,-27.173,1.0540177,0,244.8,0.0,1.0,0.0,0.0,1.0,0,1.0,244.8,40.619,1,1.0,0,1.0,0,1.0,0,1.0,0,1.0
530,'1',191.08654,90.918042,124.603,-27.173,0.95819787,0,244.8,0.0,1.0,0.0,0.0,1.0,0,1.0,244.8,50.102,1,1.0,0,1.0,0,1.0,0,1.0,0,1.0
531,'1',244.79997,124.603,124.603,-27.173,1.0023426,0,244.8,0.0,1.0,0.0,0.0,1.0,1,1.0,244.8,103.321,1,1.0,0,1.0,0,1.0,0,1.0,0,1.0
532,'1',244.79997,113.97129,124.603,-27.173,1.0045,0,244.8,0.0,1.0,0.0,0.0,1.0,1,1.0,244.8,92.537,1,1.0,0,1.0,0,1.0,0,1.0,0,1.0
533,'1',244.79997,103.87951,124.603,-27.173,1.0045,0,244.8,0.0,1.0,0.0,0.0,1.0,1,1.0,244.8,82.618,1,1.0,0,1.0,0,1.0,0,1.0,0,1.0
536,'1',401.99996,-49.044,187.332,-49.044,1.0391493,0,402.0,0.0,1.0,0.0,0.0,1.0,1,1.0,402.0,150.56,1,1.0,0,1.0,0,1.0,0,1.0,0,1.0
537,'1',401.99996,-49.044,187.332,-49.044,1.0418277,0,402.0,0.0,1.0,0.0,0.0,1.0,1,1.0,402.0,171.138,1,1.0,0,1.0,0,1.0,0,1.0,0,1.0
539,'1',0.435,-0.447,1.709,-0.447,1.0494183,0,3.67,0.0,1.0,0.0,0.0,1.0,1,1.0,3.667,0.435,1,1.0,0,1.0,0,1.0,0,1.0,0,1.0
539,'2',1.28,-0.447,1.709,-0.447,1.0494183,0,3.67,0.0,1.0,0.0,0.0,1.0,1,1.0,3.667,1.28,1,1.0,0,1.0,0,1.0,0,1.0,0,1.0
539,'3',1.817,-0.447,1.709,-0.447,1.0494183,0,3.67,0.0,1.0,0.0,0.0,1.0,1,1.0,3.667,1.817,1,1.0,0,1.0,0,1.0,0,1.0,0,1.0
539,'4',2.9008796,-0.447,1.709,-0.447,1.0494183,0,3.67,0.0,1.0,0.0,0.0,1.0,1,1.0,3.667,0.899,1,1.0,0,1.0,0,1.0,0,1.0,0,1.0
539,'5',3.667,0.0,1.709,-0.447,1.0494183,0,3.67,0.0,1.0,0.0,0.0,1.0,0,1.0,3.667,1.289,1,1.0,0,1.0,0,1.0,0,1.0,0,1.0
539,'6',3.667,0.0,1.709,-0.447,1.0494183,0,3.67,0.0,1.0,0.0,0.0,1.0,0,1.0,3.667,1.159,1,1.0,0,1.0,0,1.0,0,1.0,0,1.0
542,'1',173.73298,88.43,88.43,-19.284,1.0430256,0,173.73,0.0,1.0,0.0,0.0,1.0,1,1.0,173.733,56.291,1,1.0,0,1.0,0,1.0,0,1.0,0,1.0
543,'1',173.73298,88.43,88.43,-19.284,1.0397429,0,173.73,0.0,1.0,0.0,0.0,1.0,1,1.0,173.733,50.048,1,1.0,0,1.0,0,1.0,0,1.0,0,1.0
544,'1',173.73298,88.43,88.43,-19.284,1.0405761,0,173.73,0.0,1.0,0.0,0.0,1.0,1,1.0,173.733,80.656,1,1.0,0,1.0,0,1.0,0,1.0,0,1.0
545,'1',173.73298,88.43,88.43,-19.284,1.044189,0,173.73,0.0,1.0,0.0,0.0,1.0,1,1.0,173.733,73.088,1,1.0,0,1.0,0,1.0,0,1.0,0,1.0
546,'1',173.73298,88.43,88.43,-19.284,1.0380035,0,173.73,0.0,1.0,0.0,0.0,1.0,1,1.0,173.733,59.116,1,1.0,0,1.0,0,1.0,0,1.0,0,1.0
547,'1',173.73298,88.43,88.43,-19.284,1.0395332,0,173.73,0.0,1.0,0.0,0.0,1.0,1,1.0,173.733,49.273,1,1.0,0,1.0,0,1.0,0,1.0,0,1.0
551,'1',1079.9999,65.17298,397.44,-88.56,1.045,0,1080.0,0.0,1.0,0.0,0.0,1.0,1,1.0,1080.0,168.179,1,1.0,0,1.0,0,1.0,0,1.0,0,1.0
552,'1',1079.9999,61.671777,397.44,-88.56,1.045,0,1080.0,0.0,1.0,0.0,0.0,1.0,1,1.0,1080.0,172.722,1,1.0,0,1.0,0,1.0,0,1.0,0,1.0
554,'1',68.399993,27.342799,34.816,-7.592,1.04,0,68.4,0.0,1.0,0.0,0.0,1.0,1,1.0,68.4,31.465,1,1.0,0,1.0,0,1.0,0,1.0,0,1.0
554,'2',68.399993,27.342799,34.816,-7.592,1.04,0,68.4,0.0,1.0,0.0,0.0,1.0,1,1.0,68.4,18.691,1,1.0,0,1.0,0,1.0,0,1.0,0,1.0
554,'3',68.399993,27.342799,34.816,-7.592,1.04,0,68.4,0.0,1.0,0.0,0.0,1.0,1,1.0,68.4,19.594,1,1.0,0,1.0,0,1.0,0,1.0,0,1.0
554,'4',54.428247,23.634656,34.816,-7.592,1.04,0,68.4,0.0,1.0,0.0,0.0,1.0,0,1.0,68.4,27.758,1,1.0,0,1.0,0,1.0,0,1.0,0,1.0
554,'5',68.399993,27.342799,34.816,-7.592,1.04,0,68.4,0.0,1.0,0.0,0.0,1.0,1,1.0,68.4,26.86,1,1.0,0,1.0,0,1.0,0,1.0,0,1.0
554,'6',68.399993,27.342799,34.816,-7.592,1.04,0,68.4,0.0,1.0,0.0,0.0,1.0,1,1.0,68.4,13.872,1,1.0,0,1.0,0,1.0,0,1.0,0,1.0
558,'1',136.79999,69.631,69.631,-15.185,1.0337118,0,136.8,0.0,1.0,0.0,0.0,1.0,1,1.0,136.8,14.056,1,1.0,0,1.0,0,1.0,0,1.0,0,1.0
559,'1',136.79999,69.631,69.631,-15.185,1.0360785,0,136.8,0.0,1.0,0.0,0.0,1.0,1,1.0,136.8,64.405,1,1.0,0,1.0,0,1.0,0,1.0,0,1.0
560,'1',136.79999,69.631,69.631,-15.185,1.0344634,0,136.8,0.0,1.0,0.0,0.0,1.0,1,1.0,136.8,41.032,1,1.0,0,1.0,0,1.0,0,1.0,0,1.0
561,'1',136.79999,69.631,69.631,-15.185,1.0374063,0,136.8,0.0,1.0,0.0,0.0,1.0,1,1.0,136.8,28.648,1,1.0,0,1.0,0,1.0,0,1.0,0,1.0
562,'1',136.79999,69.631,69.631,-15.185,1.0356276,0,136.8,0.0,1.0,0.0,0.0,1.0,1,1.0,136.8,20.963,1,1.0,0,1.0,0,1.0,0,1.0,0,1.0
563,'1',136.79999,69.631,69.631,-15.185,1.0366692,0,136.8,0.0,1.0,0.0,0.0,1.0,1,1.0,136.8,36.541,1,1.0,0,1.0,0,1.0,0,1.0,0,1.0
567,'1',412.01992,279.43889,361.645,-78.865,1.018,0,710.5,0.0,1.0,0.0,0.0,1.0,1,1.0,710.5,213.037,1,1.0,0,1.0,0,1.0,0,1.0,0,1.0
568,'1',478.07992,278.60382,361.645,-78.865,1.018,0,710.5,0.0,1.0,0.0,0.0,1.0,1,1.0,710.5,129.441,1,1.0,0,1.0,0,1.0,0,1.0,0,1.0
569,'1',485.90992,274.56669,361.645,-78.865,1.018,0,710.5,0.0,1.0,0.0,0.0,1.0,1,1.0,710.5,336.192,1,1.0,0,1.0,0,1.0,0,1.0,0,1.0
570,'1',329.88992,283.64653,361.645,-78.865,1.018,0,710.5,0.0,1.0,0.0,0.0,1.0,1,1.0,710.5,76.15,1,1.0,0,1.0,0,1.0,0,1.0,0,1.0
571,'1',571.709,0.0,361.645,-78.865,1.0587341,0,710.5,0.0,1.0,0.0,0.0,1.0,0,1.0,710.5,73.471,1,1.0,0,1.0,0,1.0,0,1.0,0,1.0
572,'1',418.146,0.0,361.645,-78.865,1.0587341,0,710.5,0.0,1.0,0.0,0.0,1.0,0,1.0,710.5,216.649,1,1.0,0,1.0,0,1.0,0,1.0,0,1.0
574,'1',123.99999,9.2409701,57.784,-15.128,1.018,0,124.0,0.0,1.0,0.0,0.0,1.0,1,1.0,124.0,57.005,1,1.0,0,1.0,0,1.0,0,1.0,0,1.0
575,'1',123.99999,8.7083692,57.784,-15.128,1.018,0,124.0,0.0,1.0,0.0,0.0,1.0,1,1.0,124.0,47.6,1,1.0,0,1.0,0,1.0,0,1.0,0,1.0
576,'1',123.99999,9.1429477,57.784,-15.128,1.018,0,124.0,0.0,1.0,0.0,0.0,1.0,1,1.0,124.0,50.185,1,1.0,0,1.0,0,1.0,0,1.0,0,1.0
577,'1',123.99999,10.023179,57.784,-15.128,1.018,0,124.0,0.0,1.0,0.0,0.0,1.0,1,1.0,124.0,12.7,1,1.0,0,1.0,0,1.0,0,1.0,0,1.0
578,'1',123.99999,10.940847,57.784,-15.128,1.018,0,124.0,0.0,1.0,0.0,0.0,1.0,1,1.0,124.0,17.706,1,1.0,0,1.0,0,1.0,0,1.0,0,1.0
579,'1',123.99999,11.571927,57.784,-15.128,1.018,0,124.0,0.0,1.0,0.0,0.0,1.0,1,1.0,124.0,36.442,1,1.0,0,1.0,0,1.0,0,1.0,0,1.0
581,'1',21.082998,9.825,9.825,-2.572,1.0399678,0,21.08,0.0,1.0,0.0,0.0,1.0,1,1.0,21.083,5.483,1,1.0,0,1.0,0,1.0,0,1.0,0,1.0
582,'1',21.082998,-2.4895252,9.825,-2.572,1.045,0,21.08,0.0,1.0,0.0,0.0,1.0,1,1.0,21.083,6.229,1,1.0,0,1.0,0,1.0,0,1.0,0,1.0
582,'2',21.082998,-2.4895252,9.825,-2.572,1.045,0,21.08,0.0,1.0,0.0,0.0,1.0,1,1.0,21.083,6.254,1,1.0,0,1.0,0,1.0,0,1.0,0,1.0
582,'3',21.082998,-2.4895252,9.825,-2.572,1.045,0,21.08,0.0,1.0,0.0,0.0,1.0,1,1.0,21.083,7.482,1,1.0,0,1.0,0,1.0,0,1.0,0,1.0
582,'4',21.082998,-2.4895252,9.825,-2.572,1.045,0,21.08,0.0,1.0,0.0,0.0,1.0,1,1.0,21.083,4.317,1,1.0,0,1.0,0,1.0,0,1.0,0,1.0
582,'5',21.082998,-2.4895252,9.825,-2.572,1.045,0,21.08,0.0,1.0,0.0,0.0,1.0,1,1.0,21.083,7.684,1,1.0,0,1.0,0,1.0,0,1.0,0,1.0
587,'1',180.99998,92.129,92.129,-20.091,1.0226883,0,181.0,0.0,1.0,0.0,0.0,1.0,1,1.0,181.0,57.044,1,1.0,0,1.0,0,1.0,0,1.0,0,1.0
588,'1',180.99998,77.375622,92.129,-20.091,1.0185,0,181.0,0.0,1.0,0.0,0.0,1.0,1,1.0,181.0,65.155,1,1.0,0,1.0,0,1.0,0,1.0,0,1.0
590,'1',15.699998,-1.1595646,7.991,-1.743,1.042,0,15.7,0.0,1.0,0.0,0.0,1.0,1,1.0,15.7,2.126,1,1.0,0,1.0,0,1.0,0,1.0,0,1.0
590,'2',15.699998,-1.1595646,7.991,-1.743,1.042,0,15.7,0.0,1.0,0.0,0.0,1.0,1,1.0,15.7,5.004,1,1.0,0,1.0,0,1.0,0,1.0,0,1.0
594,'1',323.74996,128.41783,164.789,-35.936,1.0245,0,323.75,0.0,1.0,0.0,0.0,1.0,1,1.0,323.75,142.567,1,1.0,0,1.0,0,1.0,0,1.0,0,1.0
595,'1',323.75,0.0,164.789,-35.936,1.0425,0,323.75,0.0,1.0,0.0,0.0,1.0,0,1.0,323.75,54.778,1,1.0,0,1.0,0,1.0,0,1.0,0,1.0
596,'1',323.74996,105.67171,164.789,-35.936,1.0245,0,323.75,0.0,1.0,0.0,0.0,1.0,1,1.0,323.75,147.206,1,1.0,0,1.0,0,1.0,0,1.0,0,1.0
597,'1',323.74996,88.105139,164.789,-35.936,1.0245,0,323.75,0.0,1.0,0.0,0.0,1.0,1,1.0,323.75,46.804,1,1.0,0,1.0,0,1.0,0,1.0,0,1.0
599,'1',6.8,0.0,3.169,-0.83,1.0372947,0,6.8,0.0,1.0,0.0,0.0,1.0,0,1.0,6.8,3.324,1,1.0,0,1.0,0,1.0,0,1.0,0,1.0
599,'2',6.8,0.0,3.169,-0.83,1.0372947,0,6.8,0.0,1.0,0.0,0.0,1.0,0,1.0,6.8,0.698,1,1.0,0,1.0,0,1.0,0,1.0,0,1.0
599,'3',6.8,0.0,3.169,-0.83,1.0372947,0,6.8,0.0,1.0,0.0,0.0,1.0,0,1.0,6.8,0.905,1,1.0,0,1.0,0,1.0,0,1.0,0,1.0
599,'4',6.8,0.0,3.169,-0.83,1.0372947,0,6.8,0.0,1.0,0.0,0.0,1.0,0,1.0,6.8,1.101,1,1.0,0,1.0,0,1.0,0,1.0,0,1.0
599,'5',6.8,0.0,3.169,-0.83,1.0372947,0,6.8,0.0,1.0,0.0,0.0,1.0,0,1.0,6.8,3.201,1,1.0,0,1.0,0,1.0,0,1.0,0,1.0
599,'6',6.7999993,3.169,3.169,-0.83,1.0372947,0,6.8,0.0,1.0,0.0,0.0,1.0,1,1.0,6.8,2.569,1,1.0,0,1.0,0,1.0,0,1.0,0,1.0
1208,'1',11.2,0.0,5.701,-1.243,1.0477267,0,11.2,0.0,1.0,0.0,0.0,1.0,0,1.0,11.2,2.558,1,1.0,0,1.0,0,1.0,0,1.0,0,1.0
1208,'2',11.2,0.0,5.701,-1.243,1.0477267,0,11.2,0.0,1.0,0.0,0.0,1.0,0,1.0,11.2,3.605,1,1.0,0,1.0,0,1.0,0,1.0,0,1.0
1212,'1',142.49998,72.532,72.532,-15.818,1.0585026,0,142.5,0.0,1.0,0.0,0.0,1.0,1,1.0,142.5,40.985,1,1.0,0,1.0,0,1.0,0,1.0,0,1.0
1213,'1',142.49998,72.532,72.532,-15.818,1.0553566,0,142.5,0.0,1.0,0.0,0.0,1.0,1,1.0,142.5,55.372,1,1.0,0,1.0,0,1.0,0,1.0,0,1.0
1214,'1',110.39702,67.79791,72.532,-15.818,1.038384,0,142.5,0.0,1.0,0.0,0.0,1.0,0,1.0,142.5,30.813,1,1.0,0,1.0,0,1.0,0,1.0,0,1.0
1216,'1',86.999991,-9.657,44.283,-9.657,1.049729,0,87.0,0.0,1.0,0.0,0.0,1.0,1,1.0,87.0,27.249,1,1.0,0,1.0,0,1.0,0,1.0,0,1.0
1216,'2',86.999991,-9.657,44.283,-9.657,1.049729,0,87.0,0.0,1.0,0.0,0.0,1.0,1,1.0,87.0,17.194,1,1.0,0,1.0,0,1.0,0,1.0,0,1.0
1219,'1',84.199991,29.759355,39.237,-10.272,1.0425,0,84.2,0.0,1.0,0.0,0.0,1.0,1,1.0,84.2,27.937,1,1.0,0,1.0,0,1.0,0,1.0,0,1.0
1219,'2',84.199991,29.759355,39.237,-10.272,1.0425,0,84.2,0.0,1.0,0.0,0.0,1.0,1,1.0,84.2,9.3,1,1.0,0,1.0,0,1.0,0,1.0,0,1.0
1219,'3',84.199991,29.759355,39.237,-10.272,1.0425,0,84.2,0.0,1.0,0.0,0.0,1.0,1,1.0,84.2,10.695,1,1.0,0,1.0,0,1.0,0,1.0,0,1.0
1219,'4',84.199991,29.759355,39.237,-10.272,1.0425,0,84.2,0.0,1.0,0.0,0.0,1.0,1,1.0,84.2,23.64,1,1.0,0,1.0,0,1.0,0,1.0,0,1.0
1219,'5',84.199991,29.759355,39.237,-10.272,1.0425,0,84.2,0.0,1.0,0.0,0.0,1.0,1,1.0,84.2,29.358,1,1.0,0,1.0,0,1.0,0,1.0,0,1.0
1219,'6',84.199991,29.759355,39.237,-10.272,1.0425,0,84.2,0.0,1.0,0.0,0.0,1.0,1,1.0,84.2,26.019,1,1.0,0,1.0,0,1.0,0,1.0,0,1.0
1226,'1',198.87998,101.23,101.23,-22.076,1.0161187,0,198.88,0.0,1.0,0.0,0.0,1.0,1,1.0,198.88,47.086,1,1.0,0,1.0,0,1.0,0,1.0,0,1.0
1227,'1',141.77998,101.23,101.23,-22.076,1.0179243,0,198.88,0.0,1.0,0.0,0.0,1.0,1,1.0,198.88,56.121,1,1.0,0,1.0,0,1.0,0,1.0,0,1.0
1228,'1',144.06998,101.23,101.23,-22.076,1.0183894,0,198.88,0.0,1.0,0.0,0.0,1.0,1,1.0,198.88,61.855,1,1.0,0,1.0,0,1.0,0,1.0,0,1.0
1229,'1',164.00357,101.23,101.23,-22.076,0.99380952,0,198.88,0.0,1.0,0.0,0.0,1.0,0,1.0,198.88,72.249,1,1.0,0,1.0,0,1.0,0,1.0,0,1.0
1230,'1',125.68998,101.23,101.23,-22.076,1.0179372,0,198.88,0.0,1.0,0.0,0.0,1.0,1,1.0,198.88,76.895,1,1.0,0,1.0,0,1.0,0,1.0,0,1.0
1232,'1',5.35,0.0,2.723,-0.594,1.032048,0,5.35,0.0,1.0,0.0,0.0,1.0,0,1.0,5.35,2.222,1,1.0,0,1.0,0,1.0,0,1.0,0,1.0
1233,'1',5.35,0.0,2.723,-0.594,1.0516146,0,5.35,0.0,1.0,0.0,0.0,1.0,0,1.0,5.35,2.517,1,1.0,0,1.0,0,1.0,0,1.0,0,1.0
1237,'1',205.69998,59.225439,104.701,-22.833,1.0585,0,205.7,0.0,1.0,0.0,0.0,1.0,1,1.0,205.7,53.667,1,1.0,0,1.0,0,1.0,0,1.0,0,1.0
1238,'1',170.73998,26.612393,104.701,-22.833,1.0585,0,205.7,0.0,1.0,0.0,0.0,1.0,1,1.0,205.7,30.887,1,1.0,0,1.0,0,1.0,0,1.0,0,1.0
1243,'1',92.481,101.495,101.495,-22.133,1.0235393,0,199.4,0.0,1.0,0.0,0.0,1.0,1,1.0,199.4,92.481,1,1.0,0,1.0,0,1.0,0,1.0,0,1.0
1244,'1',138.50998,101.495,101.495,-22.133,1.0248465,0,199.4,0.0,1.0,0.0,0.0,1.0,1,1.0,199.4,47.17,1,1.0,0,1.0,0,1.0,0,1.0,0,1.0
1246,'1',42.0,0.0,21.378,-4.662,1.0305163,0,42.0,0.0,1.0,0.0,0.0,1.0,0,1.0,42.0,17.993,1,1.0,0,1.0,0,1.0,0,1.0,0,1.0
1251,'1',180.39998,91.824,91.824,-20.024,1.0429331,0,180.4,0.0,1.0,0.0,0.0,1.0,1,1.0,180.4,18.965,1,1.0,0,1.0,0,1.0,0,1.0,0,1.0
1252,'1',139.75909,91.824,91.824,-20.024,1.0104395,0,180.4,0.0,1.0,0.0,0.0,1.0,0,1.0,180.4,28.596,1,1.0,0,1.0,0,1.0,0,1.0,0,1.0
1253,'1',140.8168,91.824,91.824,-20.024,1.0104395,0,180.4,0.0,1.0,0.0,0.0,1.0,0,1.0,180.4,62.389,1,1.0,0,1.0,0,1.0,0,1.0,0,1.0
1256,'1',285.49996,124.24142,170.888,-37.266,1.054,0,335.73,0.0,1.0,0.0,0.0,1.0,1,1.0,335.733,84.582,1,1.0,0,1.0,0,1.0,0,1.0,0,1.0
1257,'1',276.94575,43.618798,170.888,-37.266,1.054,0,335.73,0.0,1.0,0.0,0.0,1.0,1,1.0,335.733,129.272,1,1.0,0,1.0,0,1.0,0,1.0,0,1.0
1258,'1',239.71619,31.726811,170.888,-37.266,1.0398184,0,335.73,0.0,1.0,0.0,0.0,1.0,0,1.0,335.733,56.164,1,1.0,0,1.0,0,1.0,0,1.0,0,1.0
1259,'1',282.67996,43.287125,170.888,-37.266,1.054,0,335.73,0.0,1.0,0.0,0.0,1.0,1,1.0,335.733,70.447,1,1.0,0,1.0,0,1.0,0,1.0,0,1.0
1260,'1',247.12965,53.319448,170.888,-37.266,1.0398184,0,335.73,0.0,1.0,0.0,0.0,1.0,0,1.0,335.733,47.366,1,1.0,0,1.0,0,1.0,0,1.0,0,1.0
1261,'1',284.73996,60.262165,170.888,-37.266,1.054,0,335.73,0.0,1.0,0.0,0.0,1.0,1,1.0,335.733,80.769,1,1.0,0,1.0,0,1.0,0,1.0,0,1.0
1262,'1',1.7,0.0,0.865,-0.189,1.0398184,0,1.7,0.0,1.0,0.0,0.0,1.0,0,1.0,1.7,0.215,1,1.0,0,1.0,0,1.0,0,1.0,0,1.0
1266,'1',117.172,0.0,216.457,-56.669,1.0425243,0,464.5,0.0,1.0,0.0,0.0,1.0,0,1.0,464.5,117.172,1,1.0,0,1.0,0,1.0,0,1.0,0,1.0
1267,'1',81.768,15.325621,216.457,-56.669,1.045,0,464.5,0.0,1.0,0.0,0.0,1.0,1,1.0,464.5,81.768,1,1.0,0,1.0,0,1.0,0,1.0,0,1.0
1271,'1',122.28998,32.254982,92.638,-20.202,1.0,0,182.0,0.0,1.0,0.0,0.0,1.0,1,1.0,182.0,82.486,1,1.0,0,1.0,0,1.0,0,1.0,0,1.0
1272,'1',150.08367,9.6687622,92.638,-20.202,0.99818792,0,182.0,0.0,1.0,0.0,0.0,1.0,0,1.0,182.0,78.655,1,1.0,0,1.0,0,1.0,0,1.0,0,1.0
1273,'1',171.8755,33.073962,92.638,-20.202,1.0,0,182.0,0.0,1.0,0.0,0.0,1.0,1,1.0,182.0,40.613,1,1.0,0,1.0,0,1.0,0,1.0,0,1.0
1274,'1',90.77998,41.856048,92.638,-20.202,1.0,0,182.0,0.0,1.0,0.0,0.0,1.0,1,1.0,182.0,67.977,1,1.0,0,1.0,0,1.0,0,1.0,0,1.0
1277,'1',45.533,0.0,23.176,-5.054,1.0539749,0,45.53,0.0,1.0,0.0,0.0,1.0,0,1.0,45.533,22.712,1,1.0,0,1.0,0,1.0,0,1.0,0,1.0
1277,'2',45.533,0.0,23.176,-5.054,1.0539749,0,45.53,0.0,1.0,0.0,0.0,1.0,0,1.0,45.533,4.714,1,1.0,0,1.0,0,1.0,0,1.0,0,1.0
1277,'3',45.533,0.0,23.176,-5.054,1.0539749,0,45.53,0.0,1.0,0.0,0.0,1.0,0,1.0,45.533,8.36,1,1.0,0,1.0,0,1.0,0,1.0,0,1.0
1281,'1',208.35997,94.94854,127.555,-27.817,1.009,0,250.6,0.0,1.0,0.0,0.0,1.0,1,1.0,250.6,39.394,1,1.0,0,1.0,0,1.0,0,1.0,0,1.0
1282,'1',186.82997,100.68235,127.555,-27.817,1.009,0,250.6,0.0,1.0,0.0,0.0,1.0,1,1.0,250.6,91.175,1,1.0,0,1.0,0,1.0,0,1.0,0,1.0
1283,'1',162.94997,106.48289,127.555,-27.817,1.009,0,250.6,0.0,1.0,0.0,0.0,1.0,1,1.0,250.6,104.51,1,1.0,0,1.0,0,1.0,0,1.0,0,1.0
1284,'1',194.00397,96.346073,127.555,-27.817,1.009,0,250.6,0.0,1.0,0.0,0.0,1.0,1,1.0,250.6,122.414,1,1.0,0,1.0,0,1.0,0,1.0,0,1.0
1285,'1',174.51997,102.16563,127.555,-27.817,1.009,0,250.6,0.0,1.0,0.0,0.0,1.0,1,1.0,250.6,60.398,1,1.0,0,1.0,0,1.0,0,1.0,0,1.0
1289,'1',170.87094,35.718787,109.299,-23.835,1.0458685,0,214.73,0.0,1.0,0.0,0.0,1.0,0,1.0,214.733,106.491,1,1.0,0,1.0,0,1.0,0,1.0,0,1.0
1290,'1',214.73298,100.80472,109.299,-23.835,1.0585,0,214.73,0.0,1.0,0.0,0.0,1.0,1,1.0,214.733,100.357,1,1.0,0,1.0,0,1.0,0,1.0,0,1.0
1291,'1',127.92998,60.053918,109.299,-23.835,1.0585,0,214.73,0.0,1.0,0.0,0.0,1.0,1,1.0,214.733,70.061,1,1.0,0,1.0,0,1.0,0,1.0,0,1.0
1295,'1',124.809,164.789,164.789,-35.936,1.0333676,0,323.75,0.0,1.0,0.0,0.0,1.0,1,1.0,323.75,124.809,1,1.0,0,1.0,0,1.0,0,1.0,0,1.0
1296,'1',158.99,164.789,164.789,-35.936,1.0317254,0,323.75,0.0,1.0,0.0,0.0,1.0,1,1.0,323.75,158.99,1,1.0,0,1.0,0,1.0,0,1.0,0,1.0
1297,'1',242.42996,164.789,164.789,-35.936,1.0344983,0,323.75,0.0,1.0,0.0,0.0,1.0,1,1.0,323.75,120.44,1,1.0,0,1.0,0,1.0,0,1.0,0,1.0
1298,'1',174.75996,164.789,164.789,-35.936,1.0365498,0,323.75,0.0,1.0,0.0,0.0,1.0,1,1.0,323.75,137.507,1,1.0,0,1.0,0,1.0,0,1.0,0,1.0
1300,'1',2.9,0.0,1.476,-0.322,1.0350921,0,2.9,0.0,1.0,0.0,0.0,1.0,0,1.0,2.9,1.047,1,1.0,0,1.0,0,1.0,0,1.0,0,1.0
1300,'2',69.899992,35.579,35.579,-7.759,1.0350921,0,69.9,0.0,1.0,0.0,0.0,1.0,1,1.0,69.9,30.179,1,1.0,0,1.0,0,1.0,0,1.0,0,1.0
1300,'3',69.899992,35.579,35.579,-7.759,1.0350921,0,69.9,0.0,1.0,0.0,0.0,1.0,1,1.0,69.9,28.041,1,1.0,0,1.0,0,1.0,0,1.0,0,1.0
1300,'4',69.899992,35.579,35.579,-7.759,1.0350921,0,69.9,0.0,1.0,0.0,0.0,1.0,1,1.0,69.9,10.434,1,1.0,0,1.0,0,1.0,0,1.0,0,1.0
1300,'5',69.899992,35.579,35.579,-7.759,1.0350921,0,69.9,0.0,1.0,0.0,0.0,1.0,1,1.0,69.9,23.393,1,1.0,0,1.0,0,1.0,0,1.0,0,1.0
1301,'1',2.9,0.0,1.476,-0.322,1.0348185,0,2.9,0.0,1.0,0.0,0.0,1.0,0,1.0,2.9,0.497,1,1.0,0,1.0,0,1.0,0,1.0,0,1.0
1303,'1',155.73998,57.366104,116.782,-25.467,1.04,0,229.43,0.0,1.0,0.0,0.0,1.0,1,1.0,229.433,45.211,1,1.0,0,1.0,0,1.0,0,1.0,0,1.0
1303,'2',158.37998,57.366104,116.782,-25.467,1.04,0,229.43,0.0,1.0,0.0,0.0,1.0,1,1.0,229.433,51.807,1,1.0,0,1.0,0,1.0,0,1.0,0,1.0
1303,'3',229.43298,57.366104,116.782,-25.467,1.04,0,229.43,0.0,1.0,0.0,0.0,1.0,1,1.0,229.433,88.194,1,1.0,0,1.0,0,1.0,0,1.0,0,1.0
1308,'1',175.79998,-19.514,89.482,-19.514,1.036226,0,175.8,0.0,1.0,0.0,0.0,1.0,1,1.0,175.8,61.666,1,1.0,0,1.0,0,1.0,0,1.0,0,1.0
1309,'1',175.79998,-19.514,89.482,-19.514,1.0368721,0,175.8,0.0,1.0,0.0,0.0,1.0,1,1.0,175.8,46.674,1,1.0,0,1.0,0,1.0,0,1.0,0,1.0
1310,'1',175.79998,-19.514,89.482,-19.514,1.0359022,0,175.8,0.0,1.0,0.0,0.0,1.0,1,1.0,175.8,75.957,1,1.0,0,1.0,0,1.0,0,1.0,0,1.0
1311,'1',175.79998,-19.514,89.482,-19.514,1.0327533,0,175.8,0.0,1.0,0.0,0.0,1.0,1,1.0,175.8,23.848,1,1.0,0,1.0,0,1.0,0,1.0,0,1.0
1313,'1',1.1999999,-0.146,0.559,-0.146,1.0400875,0,1.2,0.0,1.0,0.0,0.0,1.0,1,1.0,1.2,0.38,1,1.0,0,1.0,0,1.0,0,1.0,0,1.0
1313,'10',8.333,0.0,3.883,-1.017,1.0400875,0,8.33,0.0,1.0,0.0,0.0,1.0,0,1.0,8.333,1.146,1,1.0,0,1.0,0,1.0,0,1.0,0,1.0
1313,'2',1.1999999,-0.146,0.559,-0.146,1.0400875,0,1.2,0.0,1.0,0.0,0.0,1.0,1,1.0,1.2,0.418,1,1.0,0,1.0,0,1.0,0,1.0,0,1.0
1313,'3',2.4999997,-0.305,1.165,-0.305,1.0400875,0,2.5,0.0,1.0,0.0,0.0,1.0,1,1.0,2.5,0.399,1,1.0,0,1.0,0,1.0,0,1.0,0,1.0
1313,'4',2.4999997,-0.305,1.165,-0.305,1.0400875,0,2.5,0.0,1.0,0.0,0.0,1.0,1,1.0,2.5,0.615,1,1.0,0,1.0,0,1.0,0,1.0,0,1.0
1313,'5',8.3329991,-1.017,3.883,-1.017,1.0400875,0,8.33,0.0,1.0,0.0,0.0,1.0,1,1.0,8.333,2.53,1,1.0,0,1.0,0,1.0,0,1.0,0,1.0
1313,'6',8.3329991,-1.017,3.883,-1.017,1.0400875,0,8.33,0.0,1.0,0.0,0.0,1.0,1,1.0,8.333,2.739,1,1.0,0,1.0,0,1.0,0,1.0,0,1.0
1313,'7',8.3329991,-1.017,3.883,-1.017,1.0400875,0,8.33,0.0,1.0,0.0,0.0,1.0,1,1.0,8.333,3.593,1,1.0,0,1.0,0,1.0,0,1.0,0,1.0
1313,'8',8.3329991,-1.017,3.883,-1.017,1.0400875,0,8.33,0.0,1.0,0.0,0.0,1.0,1,1.0,8.333,2.702,1,1.0,0,1.0,0,1.0,0,1.0,0,1.0
1313,'9',8.333,0.0,3.883,-1.017,1.0400875,0,8.33,0.0,1.0,0.0,0.0,1.0,0,1.0,8.333,3.708,1,1.0,0,1.0,0,1.0,0,1.0,0,1.0
1318,'1',156.11664,8.0579367,101.8,-22.2,1.0422037,0,200.0,0.0,1.0,0.0,0.0,1.0,0,1.0,200.0,44.798,1,1.0,0,1.0,0,1.0,0,1.0,0,1.0
1319,'1',199.99998,11.65953,101.8,-22.2,1.045,0,200.0,0.0,1.0,0.0,0.0,1.0,1,1.0,200.0,80.25,1,1.0,0,1.0,0,1.0,0,1.0,0,1.0
1320,'1',199.99998,11.632275,101.8,-22.2,1.045,0,200.0,0.0,1.0,0.0,0.0,1.0,1,1.0,200.0,63.846,1,1.0,0,1.0,0,1.0,0,1.0,0,1.0
1325,'1',789.91321,146.46301,435.477,-114.009,1.0463414,0,934.5,0.0,1.0,0.0,0.0,1.0,0,1.0,934.5,193.556,1,1.0,0,1.0,0,1.0,0,1.0,0,1.0
1326,'1',934.4999,232.17238,435.477,-114.009,1.063,0,934.5,0.0,1.0,0.0,0.0,1.0,1,1.0,934.5,382.669,1,1.0,0,1.0,0,1.0,0,1.0,0,1.0
1328,'1',56.699994,-6.917,26.422,-6.917,1.0426497,0,56.7,0.0,1.0,0.0,0.0,1.0,1,1.0,56.7,6.738,1,1.0,0,1.0,0,1.0,0,1.0,0,1.0
1328,'2',56.699994,-6.917,26.422,-6.917,1.0426497,0,56.7,0.0,1.0,0.0,0.0,1.0,1,1.0,56.7,10.159,1,1.0,0,1.0,0,1.0,0,1.0,0,1.0
1328,'3',56.699994,-6.917,26.422,-6.917,1.0426497,0,56.7,0.0,1.0,0.0,0.0,1.0,1,1.0,56.7,17.917,1,1.0,0,1.0,0,1.0,0,1.0,0,1.0
1328,'4',56.699994,-6.917,26.422,-6.917,1.0426497,0,56.7,0.0,1.0,0.0,0.0,1.0,1,1.0,56.7,16.45,1,1.0,0,1.0,0,1.0,0,1.0,0,1.0
1330,'1',70.308501,-9.546,43.774,-9.546,1.049725,0,86.0,0.0,1.0,0.0,0.0,1.0,0,1.0,86.0,10.367,1,1.0,0,1.0,0,1.0,0,1.0,0,1.0
1330,'2',85.999991,-9.546,43.774,-9.546,1.049725,0,86.0,0.0,1.0,0.0,0.0,1.0,1,1.0,86.0,20.519,1,1.0,0,1.0,0,1.0,0,1.0,0,1.0
1330,'3',85.999991,-9.546,43.774,-9.546,1.049725,0,86.0,0.0,1.0,0.0,0.0,1.0,1,1.0,86.0,31.997,1,1.0,0,1.0,0,1.0,0,1.0,0,1.0
1332,'1',0.99999989,0.0,0.0,0.0,1.046815,0,1.0,0.0,1.0,0.0,0.0,1.0,1,1.0,1.0,0.404,1,1.0,0,1.0,0,1.0,0,1.0,0,1.0
1332,'2',2.6999997,0.0,0.0,0.0,1.046815,0,2.7,0.0,1.0,0.0,0.0,1.0,1,1.0,2.7,1.326,1,1.0,0,1.0,0,1.0,0,1.0,0,1.0
1332,'3',3.4999996,0.0,0.0,0.0,1.046815,0,3.5,0.0,1.0,0.0,0.0,1.0,1,1.0,3.5,0.715,1,1.0,0,1.0,0,1.0,0,1.0,0,1.0
1332,'4',24.999997,0.0,0.0,0.0,1.046815,0,25.0,0.0,1.0,0.0,0.0,1.0,1,1.0,25.0,10.328,1,1.0,0,1.0,0,1.0,0,1.0,0,1.0
1336,'1',139.04998,3.1503788,70.776,-15.435,1.0675,0,139.05,0.0,1.0,0.0,0.0,1.0,1,1.0,139.05,37.946,1,1.0,0,1.0,0,1.0,0,1.0,0,1.0
1337,'1',139.04998,3.235603,70.776,-15.435,1.0675,0,139.05,0.0,1.0,0.0,0.0,1.0,1,1.0,139.05,63.171,1,1.0,0,1.0,0,1.0,0,1.0,0,1.0
1341,'1',134.77,0.0,169.531,-44.384,1.0416652,0,363.8,0.0,1.0,0.0,0.0,1.0,0,1.0,363.8,134.77,1,1.0,0,1.0,0,1.0,0,1.0,0,1.0
1343,'1',46.799995,23.821,23.821,-5.195,1.0311311,0,46.8,0.0,1.0,0.0,0.0,1.0,1,1.0,46.8,17.098,1,1.0,0,1.0,0,1.0,0,1.0,0,1.0
1345,'1',38.3,0.0,19.495,-4.251,1.0061716,0,38.3,0.0,1.0,0.0,0.0,1.0,0,1.0,38.3,4.815,1,1.0,0,1.0,0,1.0,0,1.0,0,1.0
1346,'1',38.3,0.0,19.495,-4.251,1.0268108,0,38.3,0.0,1.0,0.0,0.0,1.0,0,1.0,38.3,17.942,1,1.0,0,1.0,0,1.0,0,1.0,0,1.0
1346,'2',38.3,0.0,19.495,-4.251,1.0268108,0,38.3,0.0,1.0,0.0,0.0,1.0,0,1.0,38.3,17.183,1,1.0,0,1.0,0,1.0,0,1.0,0,1.0
1346,'3',38.3,0.0,19.495,-4.251,1.0268108,0,38.3,0.0,1.0,0.0,0.0,1.0,0,1.0,38.3,12.737,1,1.0,0,1.0,0,1.0,0,1.0,0,1.0
1348,'1',4.1,0.0,2.087,-0.455,1.0518493,0,4.1,0.0,1.0,0.0,0.0,1.0,0,1.0,4.1,1.28,1,1.0,0,1.0,0,1.0,0,1.0,0,1.0
1348,'2',4.1,0.0,2.087,-0.455,1.0518493,0,4.1,0.0,1.0,0.0,0.0,1.0,0,1.0,4.1,0.484,1,1.0,0,1.0,0,1.0,0,1.0,0,1.0
1350,'1',5.0999994,0.0,0.0,0.0,1.0455648,0,5.1,0.0,1.0,0.0,0.0,1.0,1,1.0,5.1,1.284,1,1.0,0,1.0,0,1.0,0,1.0,0,1.0
1350,'2',9.9999989,0.0,0.0,0.0,1.0455648,0,10.0,0.0,1.0,0.0,0.0,1.0,1,1.0,10.0,1.91,1,1.0,0,1.0,0,1.0,0,1.0,0,1.0
1352,'1',19.2,0.0,8.947,-2.342,1.0357692,0,19.2,0.0,1.0,0.0,0.0,1.0,0,1.0,19.2,3.432,1,1.0,0,1.0,0,1.0,0,1.0,0,1.0
1354,'1',26.6,0.0,13.539,-2.953,1.0476843,0,26.6,0.0,1.0,0.0,0.0,1.0,0,1.0,26.6,8.702,1,1.0,0,1.0,0,1.0,0,1.0,0,1.0
1356,'1',33.7,0.0,17.153,-3.741,1.053665,0,33.7,0.0,1.0,0.0,0.0,1.0,0,1.0,33.7,11.2,1,1.0,0,1.0,0,1.0,0,1.0,0,1.0
1360,'1',167.073,-21.399509,207.714,-45.297,1.036,0,408.08,0.0,1.0,0.0,0.0,1.0,1,1.0,408.083,167.073,1,1.0,0,1.0,0,1.0,0,1.0,0,1.0
1361,'1',117.31996,-45.287889,207.714,-45.297,1.036,0,408.08,0.0,1.0,0.0,0.0,1.0,1,1.0,408.083,44.635,1,1.0,0,1.0,0,1.0,0,1.0,0,1.0
1362,'1',142.324,-21.384208,207.714,-45.297,1.036,0,408.08,0.0,1.0,0.0,0.0,1.0,1,1.0,408.083,142.324,1,1.0,0,1.0,0,1.0,0,1.0,0,1.0
1363,'1',195.064,-15.162765,207.714,-45.297,1.036,0,408.08,0.0,1.0,0.0,0.0,1.0,1,1.0,408.083,195.064,1,1.0,0,1.0,0,1.0,0,1.0,0,1.0
1364,'1',151.081,-38.191843,207.714,-45.297,1.036,0,408.08,0.0,1.0,0.0,0.0,1.0,1,1.0,408.083,151.081,1,1.0,0,1.0,0,1.0,0,1.0,0,1.0
1365,'1',243.0585,-19.252134,207.714,-45.297,1.0411994,0,408.08,0.0,1.0,0.0,0.0,1.0,0,1.0,408.083,82.263,1,1.0,0,1.0,0,1.0,0,1.0,0,1.0
1370,'1',138.412,0.0,212.321,-55.586,1.038372,0,455.63,0.0,1.0,0.0,0.0,1.0,0,1.0,455.625,138.412,1,1.0,0,1.0,0,1.0,0,1.0,0,1.0
1371,'1',88.104,0.0,212.321,-55.586,1.038372,0,455.63,0.0,1.0,0.0,0.0,1.0,0,1.0,455.625,88.104,1,1.0,0,1.0,0,1.0,0,1.0,0,1.0
1372,'1',105.861,0.0,212.321,-55.586,1.038372,0,455.63,0.0,1.0,0.0,0.0,1.0,0,1.0,455.625,105.861,1,1.0,0,1.0,0,1.0,0,1.0,0,1.0
1373,'1',111.3,0.0,212.321,-55.586,1.038372,0,455.63,0.0,1.0,0.0,0.0,1.0,0,1.0,455.625,111.3,1,1.0,0,1.0,0,1.0,0,1.0,0,1.0
...
0 / END OF GENERATOR DATA BEGIN BRANCH DATA
1,3,'1',0.00023182,0.00102493,0.0,99999.0,99999.0,99999.0,0.0,0.0,0.0,0.0,1,1,0.0,1,1.0,0,1.0,0,1.0,0,1.0
1,28,'1',0.00413857,0.0270728,0.00746341,219.62,219.62,219.62,0.0,0.0,0.0,0.0,1,1,0.0,1,1.0,0,1.0,0,1.0,0,1.0
1,174,'1',0.00529188,0.0209981,0.0166533,241.75,241.75,241.75,0.0,0.0,0.0,0.0,1,1,0.0,1,1.0,0,1.0,0,1.0,0,1.0
1,174,'2',0.00529188,0.0209981,0.0166533,241.75,241.75,241.75,0.0,0.0,0.0,0.0,1,1,0.0,1,1.0,0,1.0,0,1.0,0,1.0
1,247,'1',0.00712647,0.0357571,0.00985329,265.68,265.68,265.68,0.0,0.0,0.0,0.0,1,1,0.0,1,1.0,0,1.0,0,1.0,0,1.0
1,248,'1',0.00369663,0.021138,0.0100986,243.83,243.83,243.83,0.0,0.0,0.0,0.0,1,1,0.0,1,1.0,0,1.0,0,1.0,0,1.0
2,23,'1',0.0104592,0.0332497,0.00196885,79.04,79.04,79.04,0.0,0.0,0.0,0.0,1,1,0.0,1,1.0,0,1.0,0,1.0,0,1.0
2,23,'2',0.0104592,0.0332497,0.00196885,79.04,79.04,79.04,0.0,0.0,0.0,0.0,1,1,0.0,1,1.0,0,1.0,0,1.0,0,1.0
2,23,'3',0.0104592,0.0332497,0.00196885,79.04,79.04,79.04,0.0,0.0,0.0,0.0,1,1,0.0,1,1.0,0,1.0,0,1.0,0,1.0
4,128,'1',0.0132902,0.0268195,0.00578327,64.44,64.44,64.44,0.0,0.0,0.0,0.0,1,1,0.0,1,1.0,0,1.0,0,1.0,0,1.0
4,164,'1',0.0219322,0.0591199,0.0121884,52.0,52.0,52.0,0.0,0.0,0.0,0.0,1,1,0.0,1,1.0,0,1.0,0,1.0,0,1.0
5,4,'1',0.0108814,0.0309317,0.0010461,80.95,80.95,80.95,0.0,0.0,0.0,0.0,1,1,0.0,1,1.0,0,1.0,0,1.0,0,1.0
5,10,'1',0.00934009,0.0255526,0.00609131,108.59,108.59,108.59,0.0,0.0,0.0,0.0,1,1,0.0,1,1.0,0,1.0,0,1.0,0,1.0
6,13,'1',0.0134592,0.0297145,0.0015211,65.19,65.19,65.19,0.0,0.0,0.0,0.0,1,1,0.0,1,1.0,0,1.0,0,1.0,0,1.0
6,13,'2',0.0134592,0.0297145,0.0015211,65.19,65.19,65.19,0.0,0.0,0.0,0.0,1,1,0.0,1,1.0,0,1.0,0,1.0,0,1.0
6,43,'1',0.0177663,0.0495402,0.00459009,81.61,81.61,81.61,0.0,0.0,0.0,0.0,1,1,0.0,1,1.0,0,1.0,0,1.0,0,1.0
6,43,'2',0.0177663,0.0495402,0.00459009,81.61,81.61,81.61,0.0,0.0,0.0,0.0,1,1,0.0,1,1.0,0,1.0,0,1.0,0,1.0
6,43,'3',0.0177663,0.0495402,0.00459009,81.61,81.61,81.61,0.0,0.0,0.0,0.0,1,1,0.0,1,1.0,0,1.0,0,1.0,0,1.0
7,86,'1',0.00434889,0.0146316,0.0344193,256.34,256.34,256.34,0.0,0.0,0.0,0.0,1,1,0.0,1,1.0,0,1.0,0,1.0,0,1.0
7,86,'2',0.00434889,0.0146316,0.0344193,256.34,256.34,256.34,0.0,0.0,0.0,0.0,1,1,0.0,1,1.0,0,1.0,0,1.0,0,1.0
7,86,'3',0.00434889,0.0146316,0.0344193,256.34,256.34,256.34,0.0,0.0,0.0,0.0,1,1,0.0,1,1.0,0,1.0,0,1.0,0,1.0
8,214,'1',0.0177395,0.0479832,0.00111804,105.16,105.16,105.16,0.0,0.0,0.0,0.0,1,1,0.0,1,1.0,0,1.0,0,1.0,0,1.0
9,7,'1',0.00214021,0.0150334,0.0121318,319.17,319.17,319.17,0.0,0.0,0.0,0.0,1,1,0.0,1,1.0,0,1.0,0,1.0,0,1.0
9,11,'1',0.000211449,0.00119004,0.0,99999.0,99999.0,99999.0,0.0,0.0,0.0,0.0,1,1,0.0,1,1.0,0,1.0,0,1.0,0,1.0
9,208,'1',0.00444784,0.0271527,0.0302679,318.16,318.16,318.16,0.0,0.0,0.0,0.0,1,1,0.0,1,1.0,0,1.0,0,1.0,0,1.0
10,6,'1',0.0170262,0.0421583,0.00119287,86.29,86.29,86.29,0.0,0.0,0.0,0.0,1,1,0.0,1,1.0,0,1.0,0,1.0,0,1.0
12,14,'1',0.000238768,0.00116074,0.0,99999.0,99999.0,99999.0,0.0,0.0,0.0,0.0,1,1,0.0,1,1.0,0,1.0,0,1.0,0,1.0
13,8,'1',0.0165507,0.0426667,0.00366785,133.11,133.11,133.11,0.0,0.0,0.0,0.0,1,1,0.0,1,1.0,0,1.0,0,1.0,0,1.0
13,17,'1',0.0320514,0.0754904,0.00235805,82.53,82.53,82.53,0.0,0.0,0.0,0.0,1,1,0.0,1,1.0,0,1.0,0,1.0,0,1.0
13,187,'1',0.0069238,0.0171061,0.00801142,79.4,79.4,79.4,0.0,0.0,0.0,0.0,1,1,0.0,1,1.0,0,1.0,0,1.0,0,1.0
14,9,'1',0.00364564,0.0218068,0.0060302,172.04,172.04,172.04,0.0,0.0,0.0,0.0,1,1,0.0,1,1.0,0,1.0,0,1.0,0,1.0
15,151,'1',0.00171507,0.0115251,0.0086048,286.2,286.2,286.2,0.0,0.0,0.0,0.0,1,1,0.0,1,1.0,0,1.0,0,1.0,0,1.0
15,211,'1',0.00192474,0.0105067,0.00425216,280.32,280.32,280.32,0.0,0.0,0.0,0.0,1,1,0.0,1,1.0,0,1.0,0,1.0,0,1.0
15,232,'1',0.0046,0.029799,0.0212613,280.54,280.54,280.54,0.0,0.0,0.0,0.0,1,1,0.0,1,1.0,0,1.0,0,1.0,0,1.0
15,232,'2',0.0046,0.029799,0.0212613,321.13,321.13,321.13,0.0,0.0,0.0,0.0,0,1,0.0,1,1.0,0,1.0,0,1.0,0,1.0
16,21,'1',0.011558,0.0357297,0.00234347,105.45,105.45,105.45,0.0,0.0,0.0,0.0,1,1,0.0,1,1.0,0,1.0,0,1.0,0,1.0
16,35,'1',0.00813416,0.0195601,0.00218755,92.42,92.42,92.42,0.0,0.0,0.0,0.0,1,1,0.0,1,1.0,0,1.0,0,1.0,0,1.0
16,37,'1',0.0129734,0.0401236,0.000641011,73.63,73.63,73.63,0.0,0.0,0.0,0.0,1,1,0.0,1,1.0,0,1.0,0,1.0,0,1.0
17,43,'1',0.0167472,0.042412,0.00168994,99.4,99.4,99.4,0.0,0.0,0.0,0.0,1,1,0.0,1,1.0,0,1.0,0,1.0,0,1.0
18,19,'1',0.000249168,0.00107953,0.0,99999.0,99999.0,99999.0,0.0,0.0,0.0,0.0,1,1,0.0,1,1.0,0,1.0,0,1.0,0,1.0
18,187,'1',0.018127,0.0528191,0.00213896,73.01,73.01,73.01,0.0,0.0,0.0,0.0,1,1,0.0,1,1.0,0,1.0,0,1.0,0,1.0
18,187,'2',0.018127,0.0528191,0.00213896,82.62,82.62,82.62,0.0,0.0,0.0,0.0,1,1,0.0,1,1.0,0,1.0,0,1.0,0,1.0
20,22,'1',0.000219564,0.00118149,0.0,99999.0,99999.0,99999.0,0.0,0.0,0.0,0.0,1,1,0.0,1,1.0,0,1.0,0,1.0,0,1.0
21,38,'1',0.0228097,0.052298,0.00200842,68.0,68.0,68.0,0.0,0.0,0.0,0.0,1,1,0.0,1,1.0,0,1.0,0,1.0,0,1.0
21,38,'2',0.0228097,0.052298,0.00200842,68.0,68.0,68.0,0.0,0.0,0.0,0.0,1,1,0.0,1,1.0,0,1.0,0,1.0,0,1.0
22,34,'1',0.00459707,0.0237513,0.0317594,215.75,215.75,215.75,0.0,0.0,0.0,0.0,1,1,0.0,1,1.0,0,1.0,0,1.0,0,1.0
22,86,'1',0.0024419,0.0144345,0.00822082,267.98,267.98,267.98,0.0,0.0,0.0,0.0,1,1,0.0,1,1.0,0,1.0,0,1.0,0,1.0
22,215,'1',0.00318566,0.01486,0.0134473,258.04,258.04,258.04,0.0,0.0,0.0,0.0,1,1,0.0,1,1.0,0,1.0,0,1.0,0,1.0
22,215,'2',0.00318566,0.01486,0.0134473,258.04,258.04,258.04,0.0,0.0,0.0,0.0,1,1,0.0,1,1.0,0,1.0,0,1.0,0,1.0
22,215,'3',0.00318566,0.01486,0.0134473,258.04,258.04,258.04,0.0,0.0,0.0,0.0,1,1,0.0,1,1.0,0,1.0,0,1.0,0,1.0
22,548,'1',0.00620426,0.0329366,0.0176561,258.61,258.61,258.61,0.0,0.0,0.0,0.0,1,1,0.0,1,1.0,0,1.0,0,1.0,0,1.0
22,548,'2',0.00620426,0.0329366,0.0176561,258.61,258.61,258.61,0.0,0.0,0.0,0.0,1,1,0.0,1,1.0,0,1.0,0,1.0,0,1.0
22,548,'3',0.00620426,0.0329366,0.0176561,258.61,258.61,258.61,0.0,0.0,0.0,0.0,1,1,0.0,1,1.0,0,1.0,0,1.0,0,1.0
23,177,'1',0.0167668,0.0454559,0.00130041,75.07,75.07,75.07,0.0,0.0,0.0,0.0,1,1,0.0,1,1.0,0,1.0,0,1.0,0,1.0
24,16,'1',0.0118471,0.0318563,0.00208615,99.33,99.33,99.33,0.0,0.0,0.0,0.0,1,1,0.0,1,1.0,0,1.0,0,1.0,0,1.0
24,25,'1',0.000264528,0.00110156,0.0,99999.0,99999.0,99999.0,0.0,0.0,0.0,0.0,1,1,0.0,1,1.0,0,1.0,0,1.0,0,1.0
24,41,'1',0.015854,0.041633,0.00114618,67.07,67.07,67.07,0.0,0.0,0.0,0.0,1,1,0.0,1,1.0,0,1.0,0,1.0,0,1.0
24,41,'2',0.015854,0.041633,0.00114618,67.07,67.07,67.07,0.0,0.0,0.0,0.0,1,1,0.0,1,1.0,0,1.0,0,1.0,0,1.0
26,28,'1',0.000288654,0.00112215,0.0,99999.0,99999.0,99999.0,0.0,0.0,0.0,0.0,1,1,0.0,1,1.0,0,1.0,0,1.0,0,1.0
27,23,'1',0.0127749,0.0299585,0.00159547,59.21,59.21,59.21,0.0,0.0,0.0,0.0,1,1,0.0,1,1.0,0,1.0,0,1.0,0,1.0
27,177,'1',0.0148095,0.0384174,0.00194579,76.41,76.41,76.41,0.0,0.0,0.0,0.0,1,1,0.0,1,1.0,0,1.0,0,1.0,0,1.0
27,219,'1',0.0146725,0.0356523,0.000881023,55.36,55.36,55.36,0.0,0.0,0.0,0.0,1,1,0.0,1,1.0,0,1.0,0,1.0,0,1.0
28,165,'1',0.00356549,0.0232361,0.00589297,350.0,350.0,350.0,0.0,0.0,0.0,0.0,1,1,0.0,1,1.0,0,1.0,0,1.0,0,1.0
28,174,'1',0.00146485,0.0101278,0.00457715,241.31,241.31,241.31,0.0,0.0,0.0,0.0,1,1,0.0,1,1.0,0,1.0,0,1.0,0,1.0
28,555,'1',0.00683845,0.0343749,0.0208829,322.49,322.49,322.49,0.0,0.0,0.0,0.0,1,1,0.0,1,1.0,0,1.0,0,1.0,0,1.0
29,252,'1',0.0190813,0.056663,0.00108459,60.63,60.63,60.63,0.0,0.0,0.0,0.0,1,1,0.0,1,1.0,0,1.0,0,1.0,0,1.0
29,267,'1',0.0244295,0.0641456,0.00258533,81.86,81.86,81.86,0.0,0.0,0.0,0.0,1,1,0.0,1,1.0,0,1.0,0,1.0,0,1.0
29,557,'1',0.00231061,0.00635728,0.000323514,96.22,96.22,96.22,0.0,0.0,0.0,0.0,1,1,0.0,1,1.0,0,1.0,0,1.0,0,1.0
29,557,'2',0.00231061,0.00635728,0.000323514,109.17,109.17,109.17,0.0,0.0,0.0,0.0,1,1,0.0,1,1.0,0,1.0,0,1.0,0,1.0
30,31,'1',0.0017784,0.0116988,0.00650237,191.0,191.0,191.0,0.0,0.0,0.0,0.0,1,1,0.0,1,1.0,0,1.0,0,1.0,0,1.0
31,33,'1',0.000274453,0.00119906,0.0,99999.0,99999.0,99999.0,0.0,0.0,0.0,0.0,1,1,0.0,1,1.0,0,1.0,0,1.0,0,1.0
31,42,'1',0.00623491,0.0279952,0.00721758,229.38,229.38,229.38,0.0,0.0,0.0,0.0,1,1,0.0,1,1.0,0,1.0,0,1.0,0,1.0
32,17,'1',0.0264094,0.065065,0.0020865,68.42,68.42,68.42,0.0,0.0,0.0,0.0,1,1,0.0,1,1.0,0,1.0,0,1.0,0,1.0
32,17,'2',0.0264094,0.065065,0.0020865,68.42,68.42,68.42,0.0,0.0,0.0,0.0,1,1,0.0,1,1.0,0,1.0,0,1.0,0,1.0
32,283,'1',0.0142241,0.0432463,0.00220303,67.66,67.66,67.66,0.0,0.0,0.0,0.0,1,1,0.0,1,1.0,0,1.0,0,1.0,0,1.0
32,283,'2',0.0142241,0.0432463,0.00220303,67.66,67.66,67.66,0.0,0.0,0.0,0.0,1,1,0.0,1,1.0,0,1.0,0,1.0,0,1.0
34,31,'1',0.003786,0.0214023,0.00785309,232.2,232.2,232.2,0.0,0.0,0.0,0.0,1,1,0.0,1,1.0,0,1.0,0,1.0,0,1.0
34,31,'2',0.003786,0.0214023,0.00785309,232.2,232.2,232.2,0.0,0.0,0.0,0.0,1,1,0.0,1,1.0,0,1.0,0,1.0,0,1.0
34,39,'1',0.00416941,0.0265708,0.00900656,241.19,241.19,241.19,0.0,0.0,0.0,0.0,1,1,0.0,1,1.0,0,1.0,0,1.0,0,1.0
34,39,'2',0.00416941,0.0265708,0.00900656,241.19,241.19,241.19,0.0,0.0,0.0,0.0,1,1,0.0,1,1.0,0,1.0,0,1.0,0,1.0
34,564,'1',0.00581665,0.0316411,0.00756963,215.42,215.42,215.42,0.0,0.0,0.0,0.0,1,1,0.0,1,1.0,0,1.0,0,1.0,0,1.0
35,238,'1',0.0300367,0.0904545,0.00848998,62.8,62.8,62.8,0.0,0.0,0.0,0.0,1,1,0.0,1,1.0,0,1.0,0,1.0,0,1.0
35,557,'1',0.0312946,0.0706114,0.00282773,76.09,76.09,76.09,0.0,0.0,0.0,0.0,1,1,0.0,1,1.0,0,1.0,0,1.0,0,1.0
35,557,'2',0.0312946,0.0706114,0.00282773,76.09,76.09,76.09,0.0,0.0,0.0,0.0,1,1,0.0,1,1.0,0,1.0,0,1.0,0,1.0
35,557,'3',0.0312946,0.0706114,0.00282773,76.09,76.09,76.09,0.0,0.0,0.0,0.0,1,1,0.0,1,1.0,0,1.0,0,1.0,0,1.0
36,35,'1',0.0265135,0.047453,0.00141328,68.8,68.8,68.8,0.0,0.0,0.0,0.0,1,1,0.0,1,1.0,0,1.0,0,1.0,0,1.0
36,35,'2',0.0265135,0.047453,0.00141328,68.8,68.8,68.8,0.0,0.0,0.0,0.0,1,1,0.0,1,1.0,0,1.0,0,1.0,0,1.0
36,245,'1',0.0293616,0.0673862,0.0011626,49.63,49.63,49.63,0.0,0.0,0.0,0.0,1,1,0.0,1,1.0,0,1.0,0,1.0,0,1.0
36,249,'1',0.00801014,0.0261499,0.00092202,75.41,75.41,75.41,0.0,0.0,0.0,0.0,1,1,0.0,1,1.0,0,1.0,0,1.0,0,1.0
36,249,'2',0.00801014,0.0261499,0.00092202,75.41,75.41,75.41,0.0,0.0,0.0,0.0,1,1,0.0,1,1.0,0,1.0,0,1.0,0,1.0
36,249,'3',0.00801014,0.0261499,0.00092202,75.41,75.41,75.41,0.0,0.0,0.0,0.0,1,1,0.0,1,1.0,0,1.0,0,1.0,0,1.0
36,557,'1',0.0164183,0.0420729,0.0024045,101.25,101.25,101.25,0.0,0.0,0.0,0.0,1,1,0.0,1,1.0,0,1.0,0,1.0,0,1.0
37,21,'1',0.0161314,0.0299526,0.00131014,73.06,73.06,73.06,0.0,0.0,0.0,0.0,1,1,0.0,1,1.0,0,1.0,0,1.0,0,1.0
...